/*---------------------------------------------------------------------------*\
| =========                 |                                                 |
| \\      /  F ield         | OpenFOAM: The Open Source CFD Toolbox           |
|  \\    /   O peration     | Version:  2.4.0                                 |
|   \\  /    A nd           | Web:      www.OpenFOAM.org                      |
|    \\/     M anipulation  |                                                 |
\*---------------------------------------------------------------------------*/
Build  : 2.4.0-dcea1e13ff76
Exec   : homuPorousInterFoam
Date   : Aug 18 2015
Time   : 18:31:09
Host   : "homu-System-Product-Name"
PID    : 5404
Case   : /home/homu/OpenFOAM/homu-2.4.0/homuFoam/examples/homuPorousInterFoam/pressureDrop1D
nProcs : 1
sigFpe : Enabling floating point exception trapping (FOAM_SIGFPE).
fileModificationChecking : Monitoring run-time modified files using timeStampMaster
allowSystemOperations : Allowing user-supplied system call operations

// * * * * * * * * * * * * * * * * * * * * * * * * * * * * * * * * * * * * * //
Create time

Create mesh for time = 0


PIMPLE: Operating solver in PISO mode

Reading field varepsilon

Reading homuPorosityProperties

Reading field p_rgh

Reading field U

Reading/calculating face flux field phi

Reading transportProperties

Selecting incompressible transport model Newtonian
Selecting incompressible transport model Newtonian
Selecting turbulence model type laminar

Reading g
Calculating field g.h

Setting full pressure p

Creating finite volume options from "system/fvOptions"

time step continuity errors : sum local = 0.000125, global = -0.000125, cumulative = -0.000125
DICPCG:  Solving for pcorr, Initial residual = 1, Final residual = 4.43981e-13, No Iterations 1
time step continuity errors : sum local = 7.36444e-17, global = -1.01644e-17, cumulative = -0.000125
Courant Number mean: 0.01 max: 0.01

Starting time loop

Courant Number mean: 0.00998004 max: 0.00998004
Interface Courant Number mean: 0 max: 0
deltaT = 0.00119617
Time = 0.00119617

PIMPLE: iteration 1
MULES: Solving for alpha.water
MULES: Solving for alpha.water
Phase-1 volume fraction = 1  Min(alpha.water) = 1  Max(alpha.water) = 1
Phase-1 total volume = 0.00548
DICPCG:  Solving for p_rgh, Initial residual = 1, Final residual = 4.97706e-13, No Iterations 1
time step continuity errors : sum local = 1.0226e-16, global = 1.58221e-17, cumulative = -0.000125
DICPCG:  Solving for p_rgh, Initial residual = 0.000130603, Final residual = 3.49106e-17, No Iterations 1
time step continuity errors : sum local = 8.35199e-17, global = -3.30708e-18, cumulative = -0.000125
DICPCG:  Solving for p_rgh, Initial residual = 1.33597e-06, Final residual = 2.51988e-21, No Iterations 1
time step continuity errors : sum local = 7.52846e-17, global = 6.679e-18, cumulative = -0.000125
ExecutionTime = 0 s  ClockTime = 0 s

Courant Number mean: 0.0119617 max: 0.0119617
Interface Courant Number mean: 0 max: 0
deltaT = 0.00143334
Time = 0.00262952

PIMPLE: iteration 1
MULES: Solving for alpha.water
MULES: Solving for alpha.water
Phase-1 volume fraction = 1  Min(alpha.water) = 1  Max(alpha.water) = 1
Phase-1 total volume = 0.00548
DICPCG:  Solving for p_rgh, Initial residual = 0.00587292, Final residual = 2.11809e-15, No Iterations 1
time step continuity errors : sum local = 1.24167e-16, global = 1.11891e-17, cumulative = -0.000125
DICPCG:  Solving for p_rgh, Initial residual = 7.16077e-05, Final residual = 7.57607e-19, No Iterations 1
time step continuity errors : sum local = 1.08782e-17, global = 4.66211e-19, cumulative = -0.000125
DICPCG:  Solving for p_rgh, Initial residual = 6.92352e-07, Final residual = 2.67005e-22, No Iterations 1
time step continuity errors : sum local = 8.50834e-18, global = 1.20438e-18, cumulative = -0.000125
ExecutionTime = 0 s  ClockTime = 0 s

Courant Number mean: 0.0143334 max: 0.0143334
Interface Courant Number mean: 0 max: 0
deltaT = 0.00171507
Time = 0.00434459

PIMPLE: iteration 1
MULES: Solving for alpha.water
MULES: Solving for alpha.water
Phase-1 volume fraction = 1  Min(alpha.water) = 1  Max(alpha.water) = 1
Phase-1 total volume = 0.00548
DICPCG:  Solving for p_rgh, Initial residual = 0.00282926, Final residual = 9.97744e-18, No Iterations 1
time step continuity errors : sum local = 2.32435e-17, global = -2.5103e-18, cumulative = -0.000125
DICPCG:  Solving for p_rgh, Initial residual = 5.54894e-05, Final residual = 1.86384e-19, No Iterations 1
time step continuity errors : sum local = 1.38067e-17, global = -6.97306e-19, cumulative = -0.000125
DICPCG:  Solving for p_rgh, Initial residual = 7.67596e-07, Final residual = 5.12593e-22, No Iterations 1
time step continuity errors : sum local = 1.985e-17, global = 1.34813e-18, cumulative = -0.000125
ExecutionTime = 0 s  ClockTime = 0 s

Courant Number mean: 0.0171507 max: 0.0171507
Interface Courant Number mean: 0 max: 0
deltaT = 0.00205666
Time = 0.00640125

PIMPLE: iteration 1
MULES: Solving for alpha.water
MULES: Solving for alpha.water
Phase-1 volume fraction = 1  Min(alpha.water) = 1  Max(alpha.water) = 1
Phase-1 total volume = 0.00548
DICPCG:  Solving for p_rgh, Initial residual = 0.00162305, Final residual = 3.24193e-18, No Iterations 1
time step continuity errors : sum local = 2.82074e-17, global = -2.7873e-18, cumulative = -0.000125
DICPCG:  Solving for p_rgh, Initial residual = 5.42737e-05, Final residual = 1.18914e-19, No Iterations 1
time step continuity errors : sum local = 1.81174e-17, global = 1.72812e-18, cumulative = -0.000125
DICPCG:  Solving for p_rgh, Initial residual = 9.68456e-07, Final residual = 5.35158e-22, No Iterations 1
time step continuity errors : sum local = 2.17409e-17, global = 2.22984e-19, cumulative = -0.000125
ExecutionTime = 0.01 s  ClockTime = 0 s

Courant Number mean: 0.0205666 max: 0.0205666
Interface Courant Number mean: 0 max: 0
deltaT = 0.00245572
Time = 0.00885696

PIMPLE: iteration 1
MULES: Solving for alpha.water
MULES: Solving for alpha.water
Phase-1 volume fraction = 1  Min(alpha.water) = 1  Max(alpha.water) = 1
Phase-1 total volume = 0.00548
DICPCG:  Solving for p_rgh, Initial residual = 0.00105432, Final residual = 3.97281e-18, No Iterations 1
time step continuity errors : sum local = 3.05521e-17, global = -2.9953e-18, cumulative = -0.000125
DICPCG:  Solving for p_rgh, Initial residual = 5.8892e-05, Final residual = 3.76632e-20, No Iterations 1
time step continuity errors : sum local = 3.16837e-17, global = 1.065e-18, cumulative = -0.000125
DICPCG:  Solving for p_rgh, Initial residual = 1.21939e-06, Final residual = 3.56257e-22, No Iterations 1
time step continuity errors : sum local = 3.01527e-17, global = 4.0603e-18, cumulative = -0.000125
ExecutionTime = 0.01 s  ClockTime = 0 s

Courant Number mean: 0.0245572 max: 0.0245572
Interface Courant Number mean: 0 max: 0
deltaT = 0.00294098
Time = 0.0117979

PIMPLE: iteration 1
MULES: Solving for alpha.water
MULES: Solving for alpha.water
Phase-1 volume fraction = 1  Min(alpha.water) = 1  Max(alpha.water) = 1
Phase-1 total volume = 0.00548
DICPCG:  Solving for p_rgh, Initial residual = 0.000769397, Final residual = 5.30388e-18, No Iterations 1
time step continuity errors : sum local = 5.02207e-17, global = -2.23203e-18, cumulative = -0.000125
DICPCG:  Solving for p_rgh, Initial residual = 6.17342e-05, Final residual = 1.56541e-20, No Iterations 1
time step continuity errors : sum local = 4.92641e-17, global = -5.42064e-18, cumulative = -0.000125
DICPCG:  Solving for p_rgh, Initial residual = 1.5346e-06, Final residual = 9.55705e-22, No Iterations 1
time step continuity errors : sum local = 4.89452e-17, global = 1.11601e-18, cumulative = -0.000125
ExecutionTime = 0.01 s  ClockTime = 0 s

Courant Number mean: 0.0294098 max: 0.0294098
Interface Courant Number mean: 0 max: 0
deltaT = 0.00351225
Time = 0.0153102

PIMPLE: iteration 1
MULES: Solving for alpha.water
MULES: Solving for alpha.water
Phase-1 volume fraction = 1  Min(alpha.water) = 1  Max(alpha.water) = 1
Phase-1 total volume = 0.00548
DICPCG:  Solving for p_rgh, Initial residual = 0.000600797, Final residual = 1.64513e-18, No Iterations 1
time step continuity errors : sum local = 6.70205e-17, global = 3.80798e-18, cumulative = -0.000125
DICPCG:  Solving for p_rgh, Initial residual = 6.46978e-05, Final residual = 2.29206e-20, No Iterations 1
time step continuity errors : sum local = 6.52117e-17, global = 3.52238e-18, cumulative = -0.000125
DICPCG:  Solving for p_rgh, Initial residual = 1.86699e-06, Final residual = 8.0817e-22, No Iterations 1
time step continuity errors : sum local = 6.80677e-17, global = -1.53271e-17, cumulative = -0.000125
ExecutionTime = 0.01 s  ClockTime = 0 s

Courant Number mean: 0.0351225 max: 0.0351225
Interface Courant Number mean: 0 max: 0
deltaT = 0.00417836
Time = 0.0194885

PIMPLE: iteration 1
MULES: Solving for alpha.water
MULES: Solving for alpha.water
Phase-1 volume fraction = 1  Min(alpha.water) = 1  Max(alpha.water) = 1
Phase-1 total volume = 0.00548
DICPCG:  Solving for p_rgh, Initial residual = 0.000494215, Final residual = 2.22997e-18, No Iterations 1
time step continuity errors : sum local = 8.85652e-17, global = -1.47231e-17, cumulative = -0.000125
DICPCG:  Solving for p_rgh, Initial residual = 6.61043e-05, Final residual = 3.78482e-20, No Iterations 1
time step continuity errors : sum local = 9.45677e-17, global = -2.54823e-17, cumulative = -0.000125
DICPCG:  Solving for p_rgh, Initial residual = 2.18272e-06, Final residual = 1.00652e-21, No Iterations 1
time step continuity errors : sum local = 8.58471e-17, global = -8.38085e-18, cumulative = -0.000125
ExecutionTime = 0.01 s  ClockTime = 0 s

Courant Number mean: 0.0417836 max: 0.0417836
Interface Courant Number mean: 0 max: 0
deltaT = 0.00500533
Time = 0.0244939

PIMPLE: iteration 1
MULES: Solving for alpha.water
MULES: Solving for alpha.water
Phase-1 volume fraction = 1  Min(alpha.water) = 1  Max(alpha.water) = 1
Phase-1 total volume = 0.00548
DICPCG:  Solving for p_rgh, Initial residual = 0.000427211, Final residual = 1.28372e-18, No Iterations 1
time step continuity errors : sum local = 1.0338e-16, global = 9.22554e-18, cumulative = -0.000125
DICPCG:  Solving for p_rgh, Initial residual = 6.68867e-05, Final residual = 4.07194e-20, No Iterations 1
time step continuity errors : sum local = 1.28751e-16, global = 8.27585e-18, cumulative = -0.000125
DICPCG:  Solving for p_rgh, Initial residual = 2.54083e-06, Final residual = 1.18296e-21, No Iterations 1
time step continuity errors : sum local = 1.13013e-16, global = 2.78123e-17, cumulative = -0.000125
ExecutionTime = 0.02 s  ClockTime = 0 s

Courant Number mean: 0.0500533 max: 0.0500533
Interface Courant Number mean: 0 max: 0
deltaT = 0.00594383
Time = 0.0304377

PIMPLE: iteration 1
MULES: Solving for alpha.water
MULES: Solving for alpha.water
Phase-1 volume fraction = 1  Min(alpha.water) = 1  Max(alpha.water) = 1
Phase-1 total volume = 0.00548
DICPCG:  Solving for p_rgh, Initial residual = 0.000360983, Final residual = 3.17657e-18, No Iterations 1
time step continuity errors : sum local = 1.36136e-16, global = -2.30384e-17, cumulative = -0.000125
DICPCG:  Solving for p_rgh, Initial residual = 6.52069e-05, Final residual = 3.73838e-20, No Iterations 1
time step continuity errors : sum local = 1.65941e-16, global = 8.05539e-18, cumulative = -0.000125
DICPCG:  Solving for p_rgh, Initial residual = 2.83535e-06, Final residual = 2.16051e-21, No Iterations 1
time step continuity errors : sum local = 1.83663e-16, global = -4.83323e-18, cumulative = -0.000125
ExecutionTime = 0.02 s  ClockTime = 0 s

Courant Number mean: 0.0594383 max: 0.0594383
Interface Courant Number mean: 0 max: 0
deltaT = 0.00711458
Time = 0.0375523

PIMPLE: iteration 1
MULES: Solving for alpha.water
MULES: Solving for alpha.water
Phase-1 volume fraction = 1  Min(alpha.water) = 1  Max(alpha.water) = 1
Phase-1 total volume = 0.00548
DICPCG:  Solving for p_rgh, Initial residual = 0.00033542, Final residual = 1.7213e-18, No Iterations 1
time step continuity errors : sum local = 2.47801e-16, global = -3.18188e-17, cumulative = -0.000125
DICPCG:  Solving for p_rgh, Initial residual = 6.48182e-05, Final residual = 5.2907e-20, No Iterations 1
time step continuity errors : sum local = 2.1926e-16, global = -6.74944e-18, cumulative = -0.000125
DICPCG:  Solving for p_rgh, Initial residual = 3.20578e-06, Final residual = 2.44933e-21, No Iterations 1
time step continuity errors : sum local = 2.35266e-16, global = -3.47114e-18, cumulative = -0.000125
ExecutionTime = 0.03 s  ClockTime = 0 s

Courant Number mean: 0.0711458 max: 0.0711458
Interface Courant Number mean: 0 max: 0
deltaT = 0.00840814
Time = 0.0459604

PIMPLE: iteration 1
MULES: Solving for alpha.water
MULES: Solving for alpha.water
Phase-1 volume fraction = 1  Min(alpha.water) = 1  Max(alpha.water) = 1
Phase-1 total volume = 0.00548
DICPCG:  Solving for p_rgh, Initial residual = 0.000284851, Final residual = 2.37935e-18, No Iterations 1
time step continuity errors : sum local = 3.90854e-16, global = -1.16231e-17, cumulative = -0.000125
DICPCG:  Solving for p_rgh, Initial residual = 6.2775e-05, Final residual = 4.34614e-20, No Iterations 1
time step continuity errors : sum local = 4.97512e-16, global = 1.24663e-16, cumulative = -0.000125
DICPCG:  Solving for p_rgh, Initial residual = 3.4374e-06, Final residual = 1.41117e-21, No Iterations 1
time step continuity errors : sum local = 3.10404e-16, global = 6.06222e-17, cumulative = -0.000125
ExecutionTime = 0.03 s  ClockTime = 0 s

Courant Number mean: 0.0840814 max: 0.0840814
Interface Courant Number mean: 0 max: 0
deltaT = 0.00987043
Time = 0.0558308

PIMPLE: iteration 1
MULES: Solving for alpha.water
MULES: Solving for alpha.water
Phase-1 volume fraction = 1  Min(alpha.water) = 1  Max(alpha.water) = 1
Phase-1 total volume = 0.00548
DICPCG:  Solving for p_rgh, Initial residual = 0.000251064, Final residual = 1.24053e-18, No Iterations 1
time step continuity errors : sum local = 4.32075e-16, global = 3.77229e-17, cumulative = -0.000125
DICPCG:  Solving for p_rgh, Initial residual = 5.99893e-05, Final residual = 4.09894e-20, No Iterations 1
time step continuity errors : sum local = 3.6412e-16, global = -9.36384e-18, cumulative = -0.000125
DICPCG:  Solving for p_rgh, Initial residual = 3.61109e-06, Final residual = 1.27311e-21, No Iterations 1
time step continuity errors : sum local = 5.17152e-16, global = -3.29072e-17, cumulative = -0.000125
ExecutionTime = 0.03 s  ClockTime = 0 s

Courant Number mean: 0.0987043 max: 0.0987043
Interface Courant Number mean: 0 max: 0
deltaT = 0.0116887
Time = 0.0675195

PIMPLE: iteration 1
MULES: Solving for alpha.water
MULES: Solving for alpha.water
Phase-1 volume fraction = 1  Min(alpha.water) = 1  Max(alpha.water) = 1
Phase-1 total volume = 0.00548
DICPCG:  Solving for p_rgh, Initial residual = 0.000245265, Final residual = 1.42338e-18, No Iterations 1
time step continuity errors : sum local = 4.61293e-16, global = 1.64747e-17, cumulative = -0.000125
DICPCG:  Solving for p_rgh, Initial residual = 5.77865e-05, Final residual = 8.03521e-20, No Iterations 1
time step continuity errors : sum local = 6.97325e-16, global = 4.087e-17, cumulative = -0.000125
DICPCG:  Solving for p_rgh, Initial residual = 3.94581e-06, Final residual = 1.47495e-21, No Iterations 1
time step continuity errors : sum local = 5.12935e-16, global = -8.7126e-17, cumulative = -0.000125
ExecutionTime = 0.03 s  ClockTime = 0 s

Courant Number mean: 0.116887 max: 0.116887
Interface Courant Number mean: 0 max: 0
deltaT = 0.013951
Time = 0.0814705

PIMPLE: iteration 1
MULES: Solving for alpha.water
MULES: Solving for alpha.water
Phase-1 volume fraction = 1  Min(alpha.water) = 1  Max(alpha.water) = 1
Phase-1 total volume = 0.00548
DICPCG:  Solving for p_rgh, Initial residual = 0.00023237, Final residual = 1.06644e-18, No Iterations 1
time step continuity errors : sum local = 5.5965e-16, global = 2.42011e-17, cumulative = -0.000125
DICPCG:  Solving for p_rgh, Initial residual = 5.5531e-05, Final residual = 6.49236e-20, No Iterations 1
time step continuity errors : sum local = 6.82168e-16, global = -2.72262e-17, cumulative = -0.000125
DICPCG:  Solving for p_rgh, Initial residual = 4.26734e-06, Final residual = 9.02663e-22, No Iterations 1
time step continuity errors : sum local = 8.97331e-16, global = 7.67629e-17, cumulative = -0.000125
ExecutionTime = 0.03 s  ClockTime = 0 s

Courant Number mean: 0.13951 max: 0.13951
Interface Courant Number mean: 0 max: 0
deltaT = 0.0160973
Time = 0.0975678

PIMPLE: iteration 1
MULES: Solving for alpha.water
MULES: Solving for alpha.water
Phase-1 volume fraction = 1  Min(alpha.water) = 1  Max(alpha.water) = 1
Phase-1 total volume = 0.00548
DICPCG:  Solving for p_rgh, Initial residual = 0.000172685, Final residual = 2.63909e-18, No Iterations 1
time step continuity errors : sum local = 7.70537e-16, global = 8.11551e-17, cumulative = -0.000125
DICPCG:  Solving for p_rgh, Initial residual = 5.00521e-05, Final residual = 8.28207e-20, No Iterations 1
time step continuity errors : sum local = 1.10825e-15, global = 3.57781e-17, cumulative = -0.000125
DICPCG:  Solving for p_rgh, Initial residual = 4.08602e-06, Final residual = 1.19888e-21, No Iterations 1
time step continuity errors : sum local = 7.16434e-16, global = 1.61438e-16, cumulative = -0.000125
ExecutionTime = 0.03 s  ClockTime = 0 s

Courant Number mean: 0.160973 max: 0.160973
Interface Courant Number mean: 0 max: 0
deltaT = 0.0182924
Time = 0.11586

PIMPLE: iteration 1
MULES: Solving for alpha.water
MULES: Solving for alpha.water
Phase-1 volume fraction = 1  Min(alpha.water) = 1  Max(alpha.water) = 1
Phase-1 total volume = 0.00548
DICPCG:  Solving for p_rgh, Initial residual = 0.00014536, Final residual = 8.13864e-19, No Iterations 1
time step continuity errors : sum local = 1.15971e-15, global = 2.57328e-16, cumulative = -0.000125
DICPCG:  Solving for p_rgh, Initial residual = 4.51456e-05, Final residual = 4.85633e-20, No Iterations 1
time step continuity errors : sum local = 1.43092e-15, global = 3.7682e-17, cumulative = -0.000125
DICPCG:  Solving for p_rgh, Initial residual = 4.09691e-06, Final residual = 6.17051e-22, No Iterations 1
time step continuity errors : sum local = 1.21128e-15, global = -1.86923e-16, cumulative = -0.000125
ExecutionTime = 0.03 s  ClockTime = 0 s

Courant Number mean: 0.182924 max: 0.182924
Interface Courant Number mean: 0 max: 0
deltaT = 0.0202179
Time = 0.136078

PIMPLE: iteration 1
MULES: Solving for alpha.water
MULES: Solving for alpha.water
Phase-1 volume fraction = 1  Min(alpha.water) = 1  Max(alpha.water) = 1
Phase-1 total volume = 0.00548
DICPCG:  Solving for p_rgh, Initial residual = 0.000110344, Final residual = 1.49468e-18, No Iterations 1
time step continuity errors : sum local = 1.5273e-15, global = 5.06906e-16, cumulative = -0.000125
DICPCG:  Solving for p_rgh, Initial residual = 3.96267e-05, Final residual = 3.7539e-20, No Iterations 1
time step continuity errors : sum local = 1.99146e-15, global = 9.20652e-17, cumulative = -0.000125
DICPCG:  Solving for p_rgh, Initial residual = 4.02046e-06, Final residual = 5.26983e-22, No Iterations 1
time step continuity errors : sum local = 1.52072e-15, global = -3.65521e-16, cumulative = -0.000125
ExecutionTime = 0.04 s  ClockTime = 0 s

Courant Number mean: 0.202179 max: 0.202179
Interface Courant Number mean: 0 max: 0
deltaT = 0.0214072
Time = 0.157485

PIMPLE: iteration 1
MULES: Solving for alpha.water
MULES: Solving for alpha.water
Phase-1 volume fraction = 1  Min(alpha.water) = 1  Max(alpha.water) = 1
Phase-1 total volume = 0.00548
DICPCG:  Solving for p_rgh, Initial residual = 6.68688e-05, Final residual = 5.2166e-19, No Iterations 1
time step continuity errors : sum local = 1.35313e-15, global = -2.20492e-17, cumulative = -0.000125
DICPCG:  Solving for p_rgh, Initial residual = 3.33202e-05, Final residual = 1.72396e-20, No Iterations 1
time step continuity errors : sum local = 1.59857e-15, global = -3.88763e-17, cumulative = -0.000125
DICPCG:  Solving for p_rgh, Initial residual = 3.77874e-06, Final residual = 2.50126e-22, No Iterations 1
time step continuity errors : sum local = 1.6183e-15, global = -4.0617e-18, cumulative = -0.000125
ExecutionTime = 0.04 s  ClockTime = 0 s

Courant Number mean: 0.214072 max: 0.214072
Interface Courant Number mean: 0 max: 0
deltaT = 0.0228343
Time = 0.18032

PIMPLE: iteration 1
MULES: Solving for alpha.water
MULES: Solving for alpha.water
Phase-1 volume fraction = 1  Min(alpha.water) = 1  Max(alpha.water) = 1
Phase-1 total volume = 0.00548
DICPCG:  Solving for p_rgh, Initial residual = 7.05463e-05, Final residual = 3.09186e-19, No Iterations 1
time step continuity errors : sum local = 1.1512e-15, global = -1.34926e-16, cumulative = -0.000125
DICPCG:  Solving for p_rgh, Initial residual = 3.09343e-05, Final residual = 1.94014e-20, No Iterations 1
time step continuity errors : sum local = 1.55722e-15, global = 4.12204e-16, cumulative = -0.000125
DICPCG:  Solving for p_rgh, Initial residual = 3.578e-06, Final residual = 8.44071e-23, No Iterations 1
time step continuity errors : sum local = 1.71133e-15, global = -1.86297e-16, cumulative = -0.000125
ExecutionTime = 0.04 s  ClockTime = 0 s

Courant Number mean: 0.228343 max: 0.228343
Interface Courant Number mean: 0 max: 0
deltaT = 0.0245908
Time = 0.20491

PIMPLE: iteration 1
MULES: Solving for alpha.water
MULES: Solving for alpha.water
Phase-1 volume fraction = 1  Min(alpha.water) = 1  Max(alpha.water) = 1
Phase-1 total volume = 0.00548
DICPCG:  Solving for p_rgh, Initial residual = 7.56528e-05, Final residual = 6.02051e-19, No Iterations 1
time step continuity errors : sum local = 2.10625e-15, global = -1.33307e-17, cumulative = -0.000125
DICPCG:  Solving for p_rgh, Initial residual = 2.97689e-05, Final residual = 2.20991e-20, No Iterations 1
time step continuity errors : sum local = 1.59835e-15, global = 2.59949e-16, cumulative = -0.000125
DICPCG:  Solving for p_rgh, Initial residual = 3.43559e-06, Final residual = 3.40324e-22, No Iterations 1
time step continuity errors : sum local = 1.78431e-15, global = -3.25936e-16, cumulative = -0.000125
ExecutionTime = 0.04 s  ClockTime = 0 s

Courant Number mean: 0.245908 max: 0.245908
Interface Courant Number mean: 0 max: 0
deltaT = 0.0245908
Time = 0.229501

PIMPLE: iteration 1
MULES: Solving for alpha.water
MULES: Solving for alpha.water
Phase-1 volume fraction = 1  Min(alpha.water) = 1  Max(alpha.water) = 1
Phase-1 total volume = 0.00548
DICPCG:  Solving for p_rgh, Initial residual = 3.54867e-05, Final residual = 3.56896e-19, No Iterations 1
time step continuity errors : sum local = 2.06892e-15, global = 1.99961e-17, cumulative = -0.000125
DICPCG:  Solving for p_rgh, Initial residual = 2.37292e-05, Final residual = 9.10708e-21, No Iterations 1
time step continuity errors : sum local = 1.51437e-15, global = 2.10625e-16, cumulative = -0.000125
DICPCG:  Solving for p_rgh, Initial residual = 2.77276e-06, Final residual = 2.37994e-22, No Iterations 1
time step continuity errors : sum local = 1.82631e-15, global = -1.30641e-16, cumulative = -0.000125
ExecutionTime = 0.05 s  ClockTime = 0 s

Courant Number mean: 0.245908 max: 0.245908
Interface Courant Number mean: 0 max: 0
deltaT = 0.0245908
Time = 0.254092

PIMPLE: iteration 1
MULES: Solving for alpha.water
MULES: Solving for alpha.water
Phase-1 volume fraction = 1  Min(alpha.water) = 1  Max(alpha.water) = 1
Phase-1 total volume = 0.00548
DICPCG:  Solving for p_rgh, Initial residual = 2.4254e-05, Final residual = 6.25858e-21, No Iterations 1
time step continuity errors : sum local = 2.04826e-15, global = -3.97921e-16, cumulative = -0.000125
DICPCG:  Solving for p_rgh, Initial residual = 2.00136e-05, Final residual = 4.69171e-21, No Iterations 1
time step continuity errors : sum local = 1.71233e-15, global = -6.31209e-16, cumulative = -0.000125
DICPCG:  Solving for p_rgh, Initial residual = 2.20057e-06, Final residual = 2.2305e-22, No Iterations 1
time step continuity errors : sum local = 1.99494e-15, global = -5.43226e-16, cumulative = -0.000125
ExecutionTime = 0.05 s  ClockTime = 0 s

Courant Number mean: 0.245908 max: 0.245908
Interface Courant Number mean: 0 max: 0
deltaT = 0.0245908
Time = 0.278683

PIMPLE: iteration 1
MULES: Solving for alpha.water
MULES: Solving for alpha.water
Phase-1 volume fraction = 1  Min(alpha.water) = 1  Max(alpha.water) = 1
Phase-1 total volume = 0.00548
DICPCG:  Solving for p_rgh, Initial residual = 1.86364e-05, Final residual = 1.04094e-20, No Iterations 1
time step continuity errors : sum local = 1.75032e-15, global = 5.47892e-16, cumulative = -0.000125
DICPCG:  Solving for p_rgh, Initial residual = 1.65989e-05, Final residual = 8.75574e-21, No Iterations 1
time step continuity errors : sum local = 2.59282e-15, global = 3.11938e-16, cumulative = -0.000125
DICPCG:  Solving for p_rgh, Initial residual = 1.75182e-06, Final residual = 2.70565e-22, No Iterations 1
time step continuity errors : sum local = 1.92429e-15, global = 2.12625e-16, cumulative = -0.000125
ExecutionTime = 0.05 s  ClockTime = 0 s

Courant Number mean: 0.245908 max: 0.245908
Interface Courant Number mean: 0 max: 0
deltaT = 0.0245908
Time = 0.303274

PIMPLE: iteration 1
MULES: Solving for alpha.water
MULES: Solving for alpha.water
Phase-1 volume fraction = 1  Min(alpha.water) = 1  Max(alpha.water) = 1
Phase-1 total volume = 0.00548
DICPCG:  Solving for p_rgh, Initial residual = 1.41355e-05, Final residual = 8.39884e-21, No Iterations 1
time step continuity errors : sum local = 2.21156e-15, global = 2.3862e-16, cumulative = -0.000125
DICPCG:  Solving for p_rgh, Initial residual = 1.36298e-05, Final residual = 4.56279e-21, No Iterations 1
time step continuity errors : sum local = 2.43619e-15, global = 3.87257e-16, cumulative = -0.000125
DICPCG:  Solving for p_rgh, Initial residual = 1.42658e-06, Final residual = 1.89859e-22, No Iterations 1
time step continuity errors : sum local = 2.01893e-15, global = 4.5791e-16, cumulative = -0.000125
ExecutionTime = 0.05 s  ClockTime = 0 s

Courant Number mean: 0.245908 max: 0.245908
Interface Courant Number mean: 0 max: 0
deltaT = 0.0245908
Time = 0.327864

PIMPLE: iteration 1
MULES: Solving for alpha.water
MULES: Solving for alpha.water
Phase-1 volume fraction = 1  Min(alpha.water) = 1  Max(alpha.water) = 1
Phase-1 total volume = 0.00548
DICPCG:  Solving for p_rgh, Initial residual = 1.11127e-05, Final residual = 6.0068e-21, No Iterations 1
time step continuity errors : sum local = 2.08292e-15, global = 7.01861e-16, cumulative = -0.000125
DICPCG:  Solving for p_rgh, Initial residual = 1.09772e-05, Final residual = 3.50286e-21, No Iterations 1
time step continuity errors : sum local = 1.54836e-15, global = 8.88491e-16, cumulative = -0.000125
DICPCG:  Solving for p_rgh, Initial residual = 1.16987e-06, Final residual = 1.24632e-22, No Iterations 1
time step continuity errors : sum local = 1.69833e-15, global = 6.51871e-16, cumulative = -0.000125
ExecutionTime = 0.05 s  ClockTime = 0 s

Courant Number mean: 0.245908 max: 0.245908
Interface Courant Number mean: 0 max: 0
deltaT = 0.0245908
Time = 0.352455

PIMPLE: iteration 1
MULES: Solving for alpha.water
MULES: Solving for alpha.water
Phase-1 volume fraction = 1  Min(alpha.water) = 1  Max(alpha.water) = 1
Phase-1 total volume = 0.00548
DICPCG:  Solving for p_rgh, Initial residual = 8.75194e-06, Final residual = 4.07383e-21, No Iterations 1
time step continuity errors : sum local = 2.16091e-15, global = 1.25842e-15, cumulative = -0.000125
DICPCG:  Solving for p_rgh, Initial residual = 8.69778e-06, Final residual = 3.66242e-21, No Iterations 1
time step continuity errors : sum local = 2.22556e-15, global = 9.85805e-16, cumulative = -0.000125
DICPCG:  Solving for p_rgh, Initial residual = 9.44465e-07, Final residual = 4.88241e-23, No Iterations 1
time step continuity errors : sum local = 2.29421e-15, global = 1.04246e-15, cumulative = -0.000125
ExecutionTime = 0.05 s  ClockTime = 0 s

Courant Number mean: 0.245908 max: 0.245908
Interface Courant Number mean: 0 max: 0
deltaT = 0.0245908
Time = 0.377046

PIMPLE: iteration 1
MULES: Solving for alpha.water
MULES: Solving for alpha.water
Phase-1 volume fraction = 1  Min(alpha.water) = 1  Max(alpha.water) = 1
Phase-1 total volume = 0.00548
DICPCG:  Solving for p_rgh, Initial residual = 7.27735e-06, Final residual = 2.85126e-21, No Iterations 1
time step continuity errors : sum local = 2.08692e-15, global = -3.69927e-16, cumulative = -0.000125
DICPCG:  Solving for p_rgh, Initial residual = 6.72636e-06, Final residual = 1.91242e-21, No Iterations 1
time step continuity errors : sum local = 1.36173e-15, global = 3.29935e-16, cumulative = -0.000125
DICPCG:  Solving for p_rgh, Initial residual = 7.66023e-07, Final residual = 7.31883e-23, No Iterations 1
time step continuity errors : sum local = 1.97961e-15, global = -1.02646e-16, cumulative = -0.000125
ExecutionTime = 0.05 s  ClockTime = 0 s

Courant Number mean: 0.245908 max: 0.245908
Interface Courant Number mean: 0 max: 0
deltaT = 0.0245908
Time = 0.401637

PIMPLE: iteration 1
MULES: Solving for alpha.water
MULES: Solving for alpha.water
Phase-1 volume fraction = 1  Min(alpha.water) = 1  Max(alpha.water) = 1
Phase-1 total volume = 0.00548
DICPCG:  Solving for p_rgh, Initial residual = 6.08349e-06, Final residual = 1.8948e-21, No Iterations 1
time step continuity errors : sum local = 2.07892e-15, global = 3.60595e-16, cumulative = -0.000125
DICPCG:  Solving for p_rgh, Initial residual = 5.10618e-06, Final residual = 1.94388e-21, No Iterations 1
time step continuity errors : sum local = 1.66767e-15, global = 3.74593e-16, cumulative = -0.000125
DICPCG:  Solving for p_rgh, Initial residual = 6.13938e-07, Final residual = 5.5406e-23, No Iterations 1
time step continuity errors : sum local = 1.96428e-15, global = 3.52597e-16, cumulative = -0.000125
ExecutionTime = 0.06 s  ClockTime = 0 s

Courant Number mean: 0.245908 max: 0.245908
Interface Courant Number mean: 0 max: 0
deltaT = 0.0245908
Time = 0.426228

PIMPLE: iteration 1
MULES: Solving for alpha.water
MULES: Solving for alpha.water
Phase-1 volume fraction = 1  Min(alpha.water) = 1  Max(alpha.water) = 1
Phase-1 total volume = 0.00548
DICPCG:  Solving for p_rgh, Initial residual = 5.09825e-06, Final residual = 9.39959e-22, No Iterations 1
time step continuity errors : sum local = 1.66567e-15, global = 2.99941e-17, cumulative = -0.000125
DICPCG:  Solving for p_rgh, Initial residual = 4.0091e-06, Final residual = 1.72933e-21, No Iterations 1
time step continuity errors : sum local = 1.76565e-15, global = 4.86571e-17, cumulative = -0.000125
DICPCG:  Solving for p_rgh, Initial residual = 4.89877e-07, Final residual = 1.02247e-22, No Iterations 1
time step continuity errors : sum local = 1.93962e-15, global = -3.46598e-16, cumulative = -0.000125
ExecutionTime = 0.06 s  ClockTime = 0 s

Courant Number mean: 0.245908 max: 0.245908
Interface Courant Number mean: 0 max: 0
deltaT = 0.0245908
Time = 0.450818

PIMPLE: iteration 1
MULES: Solving for alpha.water
MULES: Solving for alpha.water
Phase-1 volume fraction = 1  Min(alpha.water) = 1  Max(alpha.water) = 1
Phase-1 total volume = 0.00548
DICPCG:  Solving for p_rgh, Initial residual = 4.2589e-06, Final residual = 5.15375e-22, No Iterations 1
time step continuity errors : sum local = 2.47285e-15, global = -3.63928e-16, cumulative = -0.000125
DICPCG:  Solving for p_rgh, Initial residual = 3.57544e-06, Final residual = 1.43973e-21, No Iterations 1
time step continuity errors : sum local = 2.01494e-15, global = -3.69927e-16, cumulative = -0.000125
DICPCG:  Solving for p_rgh, Initial residual = 3.96694e-07, Final residual = 3.89303e-23, No Iterations 1
time step continuity errors : sum local = 1.75632e-15, global = 1.33974e-16, cumulative = -0.000125
ExecutionTime = 0.06 s  ClockTime = 0 s

Courant Number mean: 0.245908 max: 0.245908
Interface Courant Number mean: 0 max: 0
deltaT = 0.0245908
Time = 0.475409

PIMPLE: iteration 1
MULES: Solving for alpha.water
MULES: Solving for alpha.water
Phase-1 volume fraction = 1  Min(alpha.water) = 1  Max(alpha.water) = 1
Phase-1 total volume = 0.00548
DICPCG:  Solving for p_rgh, Initial residual = 3.47043e-06, Final residual = 7.06001e-22, No Iterations 1
time step continuity errors : sum local = 1.90562e-15, global = 1.79298e-16, cumulative = -0.000125
DICPCG:  Solving for p_rgh, Initial residual = 3.23321e-06, Final residual = 6.10279e-22, No Iterations 1
time step continuity errors : sum local = 1.61968e-15, global = -1.63968e-16, cumulative = -0.000125
DICPCG:  Solving for p_rgh, Initial residual = 3.33498e-07, Final residual = 2.08813e-23, No Iterations 1
time step continuity errors : sum local = 1.65834e-15, global = 5.86551e-17, cumulative = -0.000125
ExecutionTime = 0.06 s  ClockTime = 0 s

Courant Number mean: 0.245908 max: 0.245908
Interface Courant Number mean: 0 max: 0
deltaT = 0.0245908
Time = 0.5

PIMPLE: iteration 1
MULES: Solving for alpha.water
MULES: Solving for alpha.water
Phase-1 volume fraction = 1  Min(alpha.water) = 1  Max(alpha.water) = 1
Phase-1 total volume = 0.00548
DICPCG:  Solving for p_rgh, Initial residual = 2.758e-06, Final residual = 4.71883e-22, No Iterations 1
time step continuity errors : sum local = 1.72366e-15, global = -2.26622e-17, cumulative = -0.000125
DICPCG:  Solving for p_rgh, Initial residual = 2.86688e-06, Final residual = 8.17572e-22, No Iterations 1
time step continuity errors : sum local = 1.57169e-15, global = 1.33307e-17, cumulative = -0.000125
DICPCG:  Solving for p_rgh, Initial residual = 2.8904e-07, Final residual = 5.25023e-23, No Iterations 1
time step continuity errors : sum local = 1.84097e-15, global = -5.06567e-17, cumulative = -0.000125
ExecutionTime = 0.06 s  ClockTime = 0 s

Courant Number mean: 0.245908 max: 0.245908
Interface Courant Number mean: 0 max: 0
deltaT = 0.0238095
Time = 0.52381

PIMPLE: iteration 1
MULES: Solving for alpha.water
MULES: Solving for alpha.water
Phase-1 volume fraction = 1  Min(alpha.water) = 1  Max(alpha.water) = 1
Phase-1 total volume = 0.00548
DICPCG:  Solving for p_rgh, Initial residual = 3.18212e-05, Final residual = 1.15856e-19, No Iterations 1
time step continuity errors : sum local = 1.82636e-15, global = 6.44068e-16, cumulative = -0.000125
DICPCG:  Solving for p_rgh, Initial residual = 4.24081e-06, Final residual = 7.22673e-21, No Iterations 1
time step continuity errors : sum local = 2.05224e-15, global = 2.45236e-16, cumulative = -0.000125
DICPCG:  Solving for p_rgh, Initial residual = 3.82093e-07, Final residual = 5.66116e-23, No Iterations 1
time step continuity errors : sum local = 2.58853e-15, global = -8.71234e-17, cumulative = -0.000125
ExecutionTime = 0.06 s  ClockTime = 0 s

Courant Number mean: 0.238095 max: 0.238095
Interface Courant Number mean: 0 max: 0
deltaT = 0.0238095
Time = 0.547619

PIMPLE: iteration 1
MULES: Solving for alpha.water
MULES: Solving for alpha.water
Phase-1 volume fraction = 1  Min(alpha.water) = 1  Max(alpha.water) = 1
Phase-1 total volume = 0.00548
DICPCG:  Solving for p_rgh, Initial residual = 5.15766e-06, Final residual = 3.90797e-20, No Iterations 1
time step continuity errors : sum local = 1.50175e-15, global = 1.78764e-16, cumulative = -0.000125
DICPCG:  Solving for p_rgh, Initial residual = 2.89566e-06, Final residual = 1.12073e-21, No Iterations 1
time step continuity errors : sum local = 2.15679e-15, global = 1.22618e-16, cumulative = -0.000125
DICPCG:  Solving for p_rgh, Initial residual = 3.07652e-07, Final residual = 2.8183e-23, No Iterations 1
time step continuity errors : sum local = 2.04256e-15, global = 8.32512e-17, cumulative = -0.000125
ExecutionTime = 0.06 s  ClockTime = 0 s

Courant Number mean: 0.238095 max: 0.238095
Interface Courant Number mean: 0 max: 0
deltaT = 0.0238095
Time = 0.571429

PIMPLE: iteration 1
MULES: Solving for alpha.water
MULES: Solving for alpha.water
Phase-1 volume fraction = 1  Min(alpha.water) = 1  Max(alpha.water) = 1
Phase-1 total volume = 0.00548
DICPCG:  Solving for p_rgh, Initial residual = 2.78924e-06, Final residual = 5.38452e-21, No Iterations 1
time step continuity errors : sum local = 1.4527e-15, global = 3.22679e-18, cumulative = -0.000125
DICPCG:  Solving for p_rgh, Initial residual = 2.30547e-06, Final residual = 4.77672e-22, No Iterations 1
time step continuity errors : sum local = 1.98641e-15, global = 2.96865e-17, cumulative = -0.000125
DICPCG:  Solving for p_rgh, Initial residual = 2.49939e-07, Final residual = 5.23187e-23, No Iterations 1
time step continuity errors : sum local = 1.58629e-15, global = 4.24646e-16, cumulative = -0.000125
ExecutionTime = 0.07 s  ClockTime = 0 s

Courant Number mean: 0.238095 max: 0.238095
Interface Courant Number mean: 0 max: 0
deltaT = 0.0238095
Time = 0.595238

PIMPLE: iteration 1
MULES: Solving for alpha.water
MULES: Solving for alpha.water
Phase-1 volume fraction = 1  Min(alpha.water) = 1  Max(alpha.water) = 1
Phase-1 total volume = 0.00548
DICPCG:  Solving for p_rgh, Initial residual = 2.19424e-06, Final residual = 5.75409e-22, No Iterations 1
time step continuity errors : sum local = 1.71214e-15, global = -6.77626e-17, cumulative = -0.000125
DICPCG:  Solving for p_rgh, Initial residual = 1.80918e-06, Final residual = 6.96198e-22, No Iterations 1
time step continuity errors : sum local = 1.61146e-15, global = 4.3239e-17, cumulative = -0.000125
DICPCG:  Solving for p_rgh, Initial residual = 1.96169e-07, Final residual = 3.12937e-23, No Iterations 1
time step continuity errors : sum local = 2.02643e-15, global = -1.29072e-17, cumulative = -0.000125
ExecutionTime = 0.07 s  ClockTime = 0 s

Courant Number mean: 0.238095 max: 0.238095
Interface Courant Number mean: 0 max: 0
deltaT = 0.0238095
Time = 0.619048

PIMPLE: iteration 1
MULES: Solving for alpha.water
MULES: Solving for alpha.water
Phase-1 volume fraction = 1  Min(alpha.water) = 1  Max(alpha.water) = 1
Phase-1 total volume = 0.00548
DICPCG:  Solving for p_rgh, Initial residual = 1.77772e-06, Final residual = 7.79833e-22, No Iterations 1
time step continuity errors : sum local = 1.3901e-15, global = -3.35586e-17, cumulative = -0.000125
DICPCG:  Solving for p_rgh, Initial residual = 1.42688e-06, Final residual = 3.72239e-22, No Iterations 1
time step continuity errors : sum local = 1.90574e-15, global = -2.23939e-16, cumulative = -0.000125
DICPCG:  Solving for p_rgh, Initial residual = 1.53592e-07, Final residual = 3.96815e-23, No Iterations 1
time step continuity errors : sum local = 1.65341e-15, global = -5.07252e-16, cumulative = -0.000125
ExecutionTime = 0.07 s  ClockTime = 0 s

Courant Number mean: 0.238095 max: 0.238095
Interface Courant Number mean: 0 max: 0
deltaT = 0.0238095
Time = 0.642857

PIMPLE: iteration 1
MULES: Solving for alpha.water
MULES: Solving for alpha.water
Phase-1 volume fraction = 1  Min(alpha.water) = 1  Max(alpha.water) = 1
Phase-1 total volume = 0.00548
DICPCG:  Solving for p_rgh, Initial residual = 1.43076e-06, Final residual = 4.58311e-22, No Iterations 1
time step continuity errors : sum local = 2.19035e-15, global = -1.04548e-16, cumulative = -0.000125
DICPCG:  Solving for p_rgh, Initial residual = 1.10901e-06, Final residual = 3.37813e-22, No Iterations 1
time step continuity errors : sum local = 2.20132e-15, global = -3.37522e-16, cumulative = -0.000125
DICPCG:  Solving for p_rgh, Initial residual = 1.20754e-07, Final residual = 2.84229e-23, No Iterations 1
time step continuity errors : sum local = 2.07999e-15, global = 2.38783e-17, cumulative = -0.000125
ExecutionTime = 0.07 s  ClockTime = 0 s

Courant Number mean: 0.238095 max: 0.238095
Interface Courant Number mean: 0 max: 0
deltaT = 0.0238095
Time = 0.666667

PIMPLE: iteration 1
MULES: Solving for alpha.water
MULES: Solving for alpha.water
Phase-1 volume fraction = 1  Min(alpha.water) = 1  Max(alpha.water) = 1
Phase-1 total volume = 0.00548
DICPCG:  Solving for p_rgh, Initial residual = 1.13867e-06, Final residual = 5.99721e-22, No Iterations 1
time step continuity errors : sum local = 1.9677e-15, global = -1.94253e-16, cumulative = -0.000125
DICPCG:  Solving for p_rgh, Initial residual = 8.96447e-07, Final residual = 3.35169e-22, No Iterations 1
time step continuity errors : sum local = 2.00126e-15, global = 1.50369e-16, cumulative = -0.000125
DICPCG:  Solving for p_rgh, Initial residual = 9.50815e-08, Final residual = 9.50815e-08, No Iterations 0
time step continuity errors : sum local = 1.08787e-07, global = -4.10228e-10, cumulative = -0.000125
ExecutionTime = 0.08 s  ClockTime = 0 s

Courant Number mean: 0.238095 max: 0.238096
Interface Courant Number mean: 0 max: 0
deltaT = 0.0238095
Time = 0.690476

PIMPLE: iteration 1
MULES: Solving for alpha.water
MULES: Solving for alpha.water
Phase-1 volume fraction = 1  Min(alpha.water) = 0.999999  Max(alpha.water) = 1
Phase-1 total volume = 0.00548
DICPCG:  Solving for p_rgh, Initial residual = 7.42807e-07, Final residual = 2.82601e-22, No Iterations 1
time step continuity errors : sum local = 1.65212e-15, global = 2.71051e-17, cumulative = -0.000125
DICPCG:  Solving for p_rgh, Initial residual = 8.00445e-07, Final residual = 1.96883e-22, No Iterations 1
time step continuity errors : sum local = 2.49754e-15, global = 3.09772e-17, cumulative = -0.000125
DICPCG:  Solving for p_rgh, Initial residual = 7.85258e-08, Final residual = 7.85258e-08, No Iterations 0
time step continuity errors : sum local = 8.98447e-08, global = -1.02668e-11, cumulative = -0.000125
ExecutionTime = 0.08 s  ClockTime = 0 s

Courant Number mean: 0.238095 max: 0.238096
Interface Courant Number mean: 0 max: 0
deltaT = 0.0238095
Time = 0.714286

PIMPLE: iteration 1
MULES: Solving for alpha.water
MULES: Solving for alpha.water
Phase-1 volume fraction = 1  Min(alpha.water) = 0.999999  Max(alpha.water) = 1
Phase-1 total volume = 0.00548
DICPCG:  Solving for p_rgh, Initial residual = 6.40832e-07, Final residual = 1.95608e-22, No Iterations 1
time step continuity errors : sum local = 1.8012e-15, global = -2.32974e-16, cumulative = -0.000125
DICPCG:  Solving for p_rgh, Initial residual = 7.0391e-07, Final residual = 1.89931e-22, No Iterations 1
time step continuity errors : sum local = 1.45528e-15, global = 3.77535e-16, cumulative = -0.000125
DICPCG:  Solving for p_rgh, Initial residual = 6.82721e-08, Final residual = 6.82721e-08, No Iterations 0
time step continuity errors : sum local = 7.81128e-08, global = 3.60473e-10, cumulative = -0.000125
ExecutionTime = 0.08 s  ClockTime = 0 s

Courant Number mean: 0.238095 max: 0.238095
Interface Courant Number mean: 0 max: 0
deltaT = 0.0238095
Time = 0.738095

PIMPLE: iteration 1
MULES: Solving for alpha.water
MULES: Solving for alpha.water
Phase-1 volume fraction = 1  Min(alpha.water) = 0.999999  Max(alpha.water) = 1
Phase-1 total volume = 0.00548
DICPCG:  Solving for p_rgh, Initial residual = 4.96919e-07, Final residual = 1.01128e-22, No Iterations 1
time step continuity errors : sum local = 1.75021e-15, global = -1.17455e-16, cumulative = -0.000125
DICPCG:  Solving for p_rgh, Initial residual = 6.0851e-07, Final residual = 1.18884e-22, No Iterations 1
time step continuity errors : sum local = 1.8567e-15, global = -1.63276e-16, cumulative = -0.000125
DICPCG:  Solving for p_rgh, Initial residual = 5.81537e-08, Final residual = 5.81537e-08, No Iterations 0
time step continuity errors : sum local = 6.65359e-08, global = 6.67593e-10, cumulative = -0.000124999
ExecutionTime = 0.08 s  ClockTime = 0 s

Courant Number mean: 0.238095 max: 0.238095
Interface Courant Number mean: 0 max: 0
deltaT = 0.0238095
Time = 0.761905

PIMPLE: iteration 1
MULES: Solving for alpha.water
MULES: Solving for alpha.water
Phase-1 volume fraction = 1  Min(alpha.water) = 0.999999  Max(alpha.water) = 1
Phase-1 total volume = 0.00548
DICPCG:  Solving for p_rgh, Initial residual = 3.80213e-07, Final residual = 4.67973e-23, No Iterations 1
time step continuity errors : sum local = 1.3346e-15, global = -2.50399e-16, cumulative = -0.000124999
DICPCG:  Solving for p_rgh, Initial residual = 5.15973e-07, Final residual = 1.14292e-22, No Iterations 1
time step continuity errors : sum local = 1.58371e-15, global = -5.16287e-17, cumulative = -0.000124999
DICPCG:  Solving for p_rgh, Initial residual = 4.89509e-08, Final residual = 4.89509e-08, No Iterations 0
time step continuity errors : sum local = 5.60066e-08, global = 9.0491e-10, cumulative = -0.000124998
ExecutionTime = 0.08 s  ClockTime = 0 s

Courant Number mean: 0.238095 max: 0.238095
Interface Courant Number mean: 0 max: 0
deltaT = 0.0238095
Time = 0.785714

PIMPLE: iteration 1
MULES: Solving for alpha.water
MULES: Solving for alpha.water
Phase-1 volume fraction = 1  Min(alpha.water) = 0.999999  Max(alpha.water) = 1
Phase-1 total volume = 0.00548
DICPCG:  Solving for p_rgh, Initial residual = 2.99625e-07, Final residual = 4.00775e-23, No Iterations 1
time step continuity errors : sum local = 1.54563e-15, global = -2.67824e-16, cumulative = -0.000124998
DICPCG:  Solving for p_rgh, Initial residual = 4.2903e-07, Final residual = 9.80605e-23, No Iterations 1
time step continuity errors : sum local = 1.38881e-15, global = -3.059e-16, cumulative = -0.000124998
DICPCG:  Solving for p_rgh, Initial residual = 4.11076e-08, Final residual = 4.11076e-08, No Iterations 0
time step continuity errors : sum local = 4.70328e-08, global = 1.07153e-09, cumulative = -0.000124997
ExecutionTime = 0.09 s  ClockTime = 0 s

Courant Number mean: 0.238095 max: 0.238095
Interface Courant Number mean: 0 max: 0
deltaT = 0.0238095
Time = 0.809524

PIMPLE: iteration 1
MULES: Solving for alpha.water
MULES: Solving for alpha.water
Phase-1 volume fraction = 1  Min(alpha.water) = 0.999999  Max(alpha.water) = 1
Phase-1 total volume = 0.00548
DICPCG:  Solving for p_rgh, Initial residual = 2.69103e-07, Final residual = 3.12986e-23, No Iterations 1
time step continuity errors : sum local = 2.1271e-15, global = -4.09157e-16, cumulative = -0.000124997
DICPCG:  Solving for p_rgh, Initial residual = 3.51271e-07, Final residual = 4.51878e-23, No Iterations 1
time step continuity errors : sum local = 2.0303e-15, global = -1.4327e-16, cumulative = -0.000124997
DICPCG:  Solving for p_rgh, Initial residual = 3.37514e-08, Final residual = 3.37514e-08, No Iterations 0
time step continuity errors : sum local = 3.86162e-08, global = 1.17062e-09, cumulative = -0.000124996
ExecutionTime = 0.09 s  ClockTime = 0 s

Courant Number mean: 0.238095 max: 0.238095
Interface Courant Number mean: 0 max: 0
deltaT = 0.0238095
Time = 0.833333

PIMPLE: iteration 1
MULES: Solving for alpha.water
MULES: Solving for alpha.water
Phase-1 volume fraction = 1  Min(alpha.water) = 0.999999  Max(alpha.water) = 1
Phase-1 total volume = 0.00548
DICPCG:  Solving for p_rgh, Initial residual = 2.40165e-07, Final residual = 2.71675e-23, No Iterations 1
time step continuity errors : sum local = 1.87864e-15, global = 5.48555e-17, cumulative = -0.000124996
DICPCG:  Solving for p_rgh, Initial residual = 2.84425e-07, Final residual = 3.61734e-23, No Iterations 1
time step continuity errors : sum local = 2.10968e-15, global = 6.77626e-17, cumulative = -0.000124996
DICPCG:  Solving for p_rgh, Initial residual = 2.72518e-08, Final residual = 2.72518e-08, No Iterations 0
time step continuity errors : sum local = 3.11798e-08, global = 1.20845e-09, cumulative = -0.000124995
ExecutionTime = 0.09 s  ClockTime = 0 s

Courant Number mean: 0.238095 max: 0.238095
Interface Courant Number mean: 0 max: 0
deltaT = 0.0238095
Time = 0.857143

PIMPLE: iteration 1
MULES: Solving for alpha.water
MULES: Solving for alpha.water
Phase-1 volume fraction = 1  Min(alpha.water) = 0.999999  Max(alpha.water) = 1
Phase-1 total volume = 0.00548
DICPCG:  Solving for p_rgh, Initial residual = 2.09345e-07, Final residual = 3.16682e-23, No Iterations 1
time step continuity errors : sum local = 2.17938e-15, global = -2.09741e-16, cumulative = -0.000124995
DICPCG:  Solving for p_rgh, Initial residual = 2.26489e-07, Final residual = 2.49444e-23, No Iterations 1
time step continuity errors : sum local = 2.25036e-15, global = -1.24554e-16, cumulative = -0.000124995
DICPCG:  Solving for p_rgh, Initial residual = 2.22614e-08, Final residual = 2.22614e-08, No Iterations 0
time step continuity errors : sum local = 2.547e-08, global = 1.19349e-09, cumulative = -0.000124994
ExecutionTime = 0.09 s  ClockTime = 0 s

Courant Number mean: 0.238095 max: 0.238095
Interface Courant Number mean: 0 max: 0
deltaT = 0.0238095
Time = 0.880952

PIMPLE: iteration 1
MULES: Solving for alpha.water
MULES: Solving for alpha.water
Phase-1 volume fraction = 1  Min(alpha.water) = 0.999999  Max(alpha.water) = 1
Phase-1 total volume = 0.00548
DICPCG:  Solving for p_rgh, Initial residual = 1.80394e-07, Final residual = 6.24749e-23, No Iterations 1
time step continuity errors : sum local = 1.89864e-15, global = 4.46588e-16, cumulative = -0.000124994
DICPCG:  Solving for p_rgh, Initial residual = 1.78487e-07, Final residual = 5.21812e-23, No Iterations 1
time step continuity errors : sum local = 1.65599e-15, global = -1.67793e-17, cumulative = -0.000124994
DICPCG:  Solving for p_rgh, Initial residual = 1.77746e-08, Final residual = 1.77746e-08, No Iterations 0
time step continuity errors : sum local = 2.03365e-08, global = 1.13544e-09, cumulative = -0.000124993
ExecutionTime = 0.09 s  ClockTime = 0 s

Courant Number mean: 0.238095 max: 0.238095
Interface Courant Number mean: 0 max: 0
deltaT = 0.0238095
Time = 0.904762

PIMPLE: iteration 1
MULES: Solving for alpha.water
MULES: Solving for alpha.water
Phase-1 volume fraction = 1  Min(alpha.water) = 0.999999  Max(alpha.water) = 1
Phase-1 total volume = 0.00548
DICPCG:  Solving for p_rgh, Initial residual = 1.51967e-07, Final residual = 2.54821e-23, No Iterations 1
time step continuity errors : sum local = 1.9393e-15, global = 7.90564e-16, cumulative = -0.000124993
DICPCG:  Solving for p_rgh, Initial residual = 1.46564e-07, Final residual = 2.91784e-23, No Iterations 1
time step continuity errors : sum local = 1.37203e-15, global = 2.27166e-16, cumulative = -0.000124993
DICPCG:  Solving for p_rgh, Initial residual = 1.43577e-08, Final residual = 1.43577e-08, No Iterations 0
time step continuity errors : sum local = 1.64271e-08, global = 1.04451e-09, cumulative = -0.000124992
ExecutionTime = 0.1 s  ClockTime = 0 s

Courant Number mean: 0.238095 max: 0.238095
Interface Courant Number mean: 0 max: 0
deltaT = 0.0238095
Time = 0.928571

PIMPLE: iteration 1
MULES: Solving for alpha.water
MULES: Solving for alpha.water
Phase-1 volume fraction = 1  Min(alpha.water) = 0.999999  Max(alpha.water) = 1
Phase-1 total volume = 0.00548
DICPCG:  Solving for p_rgh, Initial residual = 1.2521e-07, Final residual = 6.467e-23, No Iterations 1
time step continuity errors : sum local = 2.07354e-15, global = -6.40841e-16, cumulative = -0.000124992
DICPCG:  Solving for p_rgh, Initial residual = 1.29959e-07, Final residual = 1.57996e-23, No Iterations 1
time step continuity errors : sum local = 1.61404e-15, global = -8.88659e-16, cumulative = -0.000124992
DICPCG:  Solving for p_rgh, Initial residual = 1.24743e-08, Final residual = 1.24743e-08, No Iterations 0
time step continuity errors : sum local = 1.42723e-08, global = 9.30648e-10, cumulative = -0.000124991
ExecutionTime = 0.1 s  ClockTime = 0 s

Courant Number mean: 0.238095 max: 0.238095
Interface Courant Number mean: 0 max: 0
deltaT = 0.0238095
Time = 0.952381

PIMPLE: iteration 1
MULES: Solving for alpha.water
MULES: Solving for alpha.water
Phase-1 volume fraction = 1  Min(alpha.water) = 0.999999  Max(alpha.water) = 1
Phase-1 total volume = 0.00548
DICPCG:  Solving for p_rgh, Initial residual = 1.01202e-07, Final residual = 2.51675e-23, No Iterations 1
time step continuity errors : sum local = 1.71794e-15, global = 2.06515e-16, cumulative = -0.000124991
DICPCG:  Solving for p_rgh, Initial residual = 1.15444e-07, Final residual = 2.10108e-23, No Iterations 1
time step continuity errors : sum local = 1.9748e-15, global = 8.26059e-17, cumulative = -0.000124991
DICPCG:  Solving for p_rgh, Initial residual = 1.11992e-08, Final residual = 1.11992e-08, No Iterations 0
time step continuity errors : sum local = 1.28134e-08, global = 8.03122e-10, cumulative = -0.00012499
ExecutionTime = 0.1 s  ClockTime = 0 s

Courant Number mean: 0.238095 max: 0.238095
Interface Courant Number mean: 0 max: 0
deltaT = 0.0238095
Time = 0.97619

PIMPLE: iteration 1
MULES: Solving for alpha.water
MULES: Solving for alpha.water
Phase-1 volume fraction = 1  Min(alpha.water) = 1  Max(alpha.water) = 1
Phase-1 total volume = 0.00548
DICPCG:  Solving for p_rgh, Initial residual = 7.96742e-08, Final residual = 7.96742e-08, No Iterations 0
time step continuity errors : sum local = 9.11581e-08, global = -2.13238e-09, cumulative = -0.000124992
DICPCG:  Solving for p_rgh, Initial residual = 1.53433e-07, Final residual = 1.75647e-23, No Iterations 1
time step continuity errors : sum local = 1.92704e-15, global = 3.74308e-17, cumulative = -0.000124992
DICPCG:  Solving for p_rgh, Initial residual = 8.23759e-09, Final residual = 8.23759e-09, No Iterations 0
time step continuity errors : sum local = 9.42492e-09, global = 3.02083e-10, cumulative = -0.000124992
ExecutionTime = 0.1 s  ClockTime = 0 s

Courant Number mean: 0.238095 max: 0.238095
Interface Courant Number mean: 0 max: 0
deltaT = 0.0238095
Time = 1

PIMPLE: iteration 1
MULES: Solving for alpha.water
MULES: Solving for alpha.water
Phase-1 volume fraction = 1  Min(alpha.water) = 1  Max(alpha.water) = 1
Phase-1 total volume = 0.00548
DICPCG:  Solving for p_rgh, Initial residual = 6.80426e-08, Final residual = 6.80426e-08, No Iterations 0
time step continuity errors : sum local = 7.785e-08, global = -2.55375e-09, cumulative = -0.000124994
DICPCG:  Solving for p_rgh, Initial residual = 1.24919e-07, Final residual = 1.80228e-23, No Iterations 1
time step continuity errors : sum local = 1.32363e-15, global = -5.38874e-16, cumulative = -0.000124994
DICPCG:  Solving for p_rgh, Initial residual = 7.68114e-09, Final residual = 7.68114e-09, No Iterations 0
time step continuity errors : sum local = 8.78826e-09, global = 1.78956e-10, cumulative = -0.000124994
ExecutionTime = 0.1 s  ClockTime = 0 s

Courant Number mean: 0.238095 max: 0.238095
Interface Courant Number mean: 0 max: 0
deltaT = 0.0238095
Time = 1.02381

PIMPLE: iteration 1
MULES: Solving for alpha.water
MULES: Solving for alpha.water
Phase-1 volume fraction = 1  Min(alpha.water) = 1  Max(alpha.water) = 1
Phase-1 total volume = 0.00548
DICPCG:  Solving for p_rgh, Initial residual = 4.85423e-08, Final residual = 4.85423e-08, No Iterations 0
time step continuity errors : sum local = 5.55389e-08, global = -1.9341e-09, cumulative = -0.000124996
DICPCG:  Solving for p_rgh, Initial residual = 1.14814e-07, Final residual = 1.19711e-23, No Iterations 1
time step continuity errors : sum local = 1.65793e-15, global = 3.60755e-16, cumulative = -0.000124996
DICPCG:  Solving for p_rgh, Initial residual = 5.70193e-09, Final residual = 5.70193e-09, No Iterations 0
time step continuity errors : sum local = 6.52378e-09, global = 1.33413e-10, cumulative = -0.000124996
ExecutionTime = 0.1 s  ClockTime = 0 s

Courant Number mean: 0.238095 max: 0.238095
Interface Courant Number mean: 0 max: 0
deltaT = 0.0238095
Time = 1.04762

PIMPLE: iteration 1
MULES: Solving for alpha.water
MULES: Solving for alpha.water
Phase-1 volume fraction = 1  Min(alpha.water) = 1  Max(alpha.water) = 1
Phase-1 total volume = 0.00548
DICPCG:  Solving for p_rgh, Initial residual = 4.09917e-08, Final residual = 4.09917e-08, No Iterations 0
time step continuity errors : sum local = 4.69001e-08, global = -1.484e-09, cumulative = -0.000124997
DICPCG:  Solving for p_rgh, Initial residual = 1.00766e-07, Final residual = 1.70436e-23, No Iterations 1
time step continuity errors : sum local = 1.46432e-15, global = 2.65242e-16, cumulative = -0.000124997
DICPCG:  Solving for p_rgh, Initial residual = 4.99292e-09, Final residual = 4.99292e-09, No Iterations 0
time step continuity errors : sum local = 5.71257e-09, global = 3.20758e-11, cumulative = -0.000124997
ExecutionTime = 0.11 s  ClockTime = 0 s

Courant Number mean: 0.238095 max: 0.238095
Interface Courant Number mean: 0 max: 0
deltaT = 0.0238095
Time = 1.07143

PIMPLE: iteration 1
MULES: Solving for alpha.water
MULES: Solving for alpha.water
Phase-1 volume fraction = 1  Min(alpha.water) = 1  Max(alpha.water) = 1
Phase-1 total volume = 0.00548
DICPCG:  Solving for p_rgh, Initial residual = 3.55277e-08, Final residual = 3.55277e-08, No Iterations 0
time step continuity errors : sum local = 4.06485e-08, global = -1.25741e-09, cumulative = -0.000124999
DICPCG:  Solving for p_rgh, Initial residual = 8.51375e-08, Final residual = 8.51375e-08, No Iterations 0
time step continuity errors : sum local = 9.74087e-08, global = 2.91945e-09, cumulative = -0.000124996
DICPCG:  Solving for p_rgh, Initial residual = 8.1532e-08, Final residual = 8.1532e-08, No Iterations 0
time step continuity errors : sum local = 9.32836e-08, global = 3.19979e-09, cumulative = -0.000124993
ExecutionTime = 0.11 s  ClockTime = 0 s

Courant Number mean: 0.238095 max: 0.238096
Interface Courant Number mean: 0 max: 0
deltaT = 0.0238095
Time = 1.09524

PIMPLE: iteration 1
MULES: Solving for alpha.water
MULES: Solving for alpha.water
Phase-1 volume fraction = 1  Min(alpha.water) = 1  Max(alpha.water) = 1
Phase-1 total volume = 0.00548
DICPCG:  Solving for p_rgh, Initial residual = 1.88639e-07, Final residual = 1.74134e-23, No Iterations 1
time step continuity errors : sum local = 1.48432e-15, global = 6.32451e-17, cumulative = -0.000124993
DICPCG:  Solving for p_rgh, Initial residual = 3.8933e-08, Final residual = 3.8933e-08, No Iterations 0
time step continuity errors : sum local = 4.45446e-08, global = 3.44575e-09, cumulative = -0.000124989
DICPCG:  Solving for p_rgh, Initial residual = 3.78634e-08, Final residual = 3.78634e-08, No Iterations 0
time step continuity errors : sum local = 4.33208e-08, global = 3.7152e-09, cumulative = -0.000124985
ExecutionTime = 0.11 s  ClockTime = 0 s

Courant Number mean: 0.238095 max: 0.238095
Interface Courant Number mean: 0 max: 0
deltaT = 0.0238095
Time = 1.11905

PIMPLE: iteration 1
MULES: Solving for alpha.water
MULES: Solving for alpha.water
Phase-1 volume fraction = 1  Min(alpha.water) = 0.999999  Max(alpha.water) = 1
Phase-1 total volume = 0.00548
DICPCG:  Solving for p_rgh, Initial residual = 3.09299e-08, Final residual = 3.09299e-08, No Iterations 0
time step continuity errors : sum local = 3.5388e-08, global = 3.41041e-09, cumulative = -0.000124982
DICPCG:  Solving for p_rgh, Initial residual = 6.26031e-08, Final residual = 6.26031e-08, No Iterations 0
time step continuity errors : sum local = 7.16264e-08, global = 6.76394e-09, cumulative = -0.000124975
DICPCG:  Solving for p_rgh, Initial residual = 6.13154e-08, Final residual = 6.13154e-08, No Iterations 0
time step continuity errors : sum local = 7.01531e-08, global = 6.80486e-09, cumulative = -0.000124968
ExecutionTime = 0.11 s  ClockTime = 0 s

Courant Number mean: 0.238095 max: 0.238096
Interface Courant Number mean: 0 max: 0
deltaT = 0.0238095
Time = 1.14286

PIMPLE: iteration 1
MULES: Solving for alpha.water
MULES: Solving for alpha.water
Phase-1 volume fraction = 1  Min(alpha.water) = 0.999999  Max(alpha.water) = 1
Phase-1 total volume = 0.00548
DICPCG:  Solving for p_rgh, Initial residual = 9.93931e-08, Final residual = 9.93931e-08, No Iterations 0
time step continuity errors : sum local = 1.13719e-07, global = 9.0755e-09, cumulative = -0.000124959
DICPCG:  Solving for p_rgh, Initial residual = 1.24522e-07, Final residual = 6.6427e-23, No Iterations 1
time step continuity errors : sum local = 1.63018e-15, global = 5.16287e-16, cumulative = -0.000124959
DICPCG:  Solving for p_rgh, Initial residual = 7.52117e-09, Final residual = 7.52117e-09, No Iterations 0
time step continuity errors : sum local = 8.60523e-09, global = -5.11605e-11, cumulative = -0.000124959
ExecutionTime = 0.11 s  ClockTime = 0 s

Courant Number mean: 0.238095 max: 0.238095
Interface Courant Number mean: 0 max: 0
deltaT = 0.0238095
Time = 1.16667

PIMPLE: iteration 1
MULES: Solving for alpha.water
MULES: Solving for alpha.water
Phase-1 volume fraction = 1  Min(alpha.water) = 0.999999  Max(alpha.water) = 1
Phase-1 total volume = 0.00548
DICPCG:  Solving for p_rgh, Initial residual = 5.51109e-08, Final residual = 5.51109e-08, No Iterations 0
time step continuity errors : sum local = 6.30543e-08, global = -5.94994e-09, cumulative = -0.000124965
DICPCG:  Solving for p_rgh, Initial residual = 3.71935e-08, Final residual = 3.71935e-08, No Iterations 0
time step continuity errors : sum local = 4.25544e-08, global = -3.01129e-09, cumulative = -0.000124968
DICPCG:  Solving for p_rgh, Initial residual = 3.34806e-08, Final residual = 3.34806e-08, No Iterations 0
time step continuity errors : sum local = 3.83063e-08, global = -3.03597e-09, cumulative = -0.000124971
ExecutionTime = 0.12 s  ClockTime = 0 s

Courant Number mean: 0.238095 max: 0.238095
Interface Courant Number mean: 0 max: 0
deltaT = 0.0238095
Time = 1.19048

PIMPLE: iteration 1
MULES: Solving for alpha.water
MULES: Solving for alpha.water
Phase-1 volume fraction = 1  Min(alpha.water) = 1  Max(alpha.water) = 1
Phase-1 total volume = 0.00548
DICPCG:  Solving for p_rgh, Initial residual = 5.71978e-08, Final residual = 5.71978e-08, No Iterations 0
time step continuity errors : sum local = 6.5442e-08, global = -5.65245e-09, cumulative = -0.000124977
DICPCG:  Solving for p_rgh, Initial residual = 4.40938e-08, Final residual = 4.40938e-08, No Iterations 0
time step continuity errors : sum local = 5.04492e-08, global = -3.09877e-09, cumulative = -0.00012498
DICPCG:  Solving for p_rgh, Initial residual = 4.10253e-08, Final residual = 4.10253e-08, No Iterations 0
time step continuity errors : sum local = 4.69385e-08, global = -3.26905e-09, cumulative = -0.000124983
ExecutionTime = 0.12 s  ClockTime = 0 s

Courant Number mean: 0.238095 max: 0.238095
Interface Courant Number mean: 0 max: 0
deltaT = 0.0238095
Time = 1.21429

PIMPLE: iteration 1
MULES: Solving for alpha.water
MULES: Solving for alpha.water
Phase-1 volume fraction = 1  Min(alpha.water) = 1  Max(alpha.water) = 1
Phase-1 total volume = 0.00548
DICPCG:  Solving for p_rgh, Initial residual = 7.45503e-08, Final residual = 7.45503e-08, No Iterations 0
time step continuity errors : sum local = 8.52956e-08, global = -3.32946e-09, cumulative = -0.000124987
DICPCG:  Solving for p_rgh, Initial residual = 7.96346e-08, Final residual = 7.96346e-08, No Iterations 0
time step continuity errors : sum local = 9.11128e-08, global = -1.30229e-09, cumulative = -0.000124988
DICPCG:  Solving for p_rgh, Initial residual = 7.62085e-08, Final residual = 7.62085e-08, No Iterations 0
time step continuity errors : sum local = 8.71928e-08, global = -1.5789e-09, cumulative = -0.00012499
ExecutionTime = 0.12 s  ClockTime = 0 s

Courant Number mean: 0.238095 max: 0.238096
Interface Courant Number mean: 0 max: 0
deltaT = 0.0238095
Time = 1.2381

PIMPLE: iteration 1
MULES: Solving for alpha.water
MULES: Solving for alpha.water
Phase-1 volume fraction = 1  Min(alpha.water) = 0.999999  Max(alpha.water) = 1
Phase-1 total volume = 0.00548
DICPCG:  Solving for p_rgh, Initial residual = 1.22571e-07, Final residual = 4.19311e-23, No Iterations 1
time step continuity errors : sum local = 2.01158e-15, global = -4.51751e-18, cumulative = -0.00012499
DICPCG:  Solving for p_rgh, Initial residual = 9.38709e-09, Final residual = 9.38709e-09, No Iterations 0
time step continuity errors : sum local = 1.07401e-08, global = 1.40164e-09, cumulative = -0.000124988
DICPCG:  Solving for p_rgh, Initial residual = 9.82238e-09, Final residual = 9.82238e-09, No Iterations 0
time step continuity errors : sum local = 1.12381e-08, global = 1.25774e-09, cumulative = -0.000124987
ExecutionTime = 0.12 s  ClockTime = 0 s

Courant Number mean: 0.238095 max: 0.238095
Interface Courant Number mean: 0 max: 0
deltaT = 0.0238095
Time = 1.2619

PIMPLE: iteration 1
MULES: Solving for alpha.water
MULES: Solving for alpha.water
Phase-1 volume fraction = 1  Min(alpha.water) = 0.999999  Max(alpha.water) = 1
Phase-1 total volume = 0.00548
DICPCG:  Solving for p_rgh, Initial residual = 5.30235e-08, Final residual = 5.30235e-08, No Iterations 0
time step continuity errors : sum local = 6.0666e-08, global = 3.73173e-09, cumulative = -0.000124983
DICPCG:  Solving for p_rgh, Initial residual = 5.48051e-08, Final residual = 5.48051e-08, No Iterations 0
time step continuity errors : sum local = 6.27044e-08, global = 4.78789e-09, cumulative = -0.000124978
DICPCG:  Solving for p_rgh, Initial residual = 5.57406e-08, Final residual = 5.57406e-08, No Iterations 0
time step continuity errors : sum local = 6.37747e-08, global = 4.61428e-09, cumulative = -0.000124974
ExecutionTime = 0.12 s  ClockTime = 0 s

Courant Number mean: 0.238095 max: 0.238095
Interface Courant Number mean: 0 max: 0
deltaT = 0.0238095
Time = 1.28571

PIMPLE: iteration 1
MULES: Solving for alpha.water
MULES: Solving for alpha.water
Phase-1 volume fraction = 1  Min(alpha.water) = 0.999999  Max(alpha.water) = 1
Phase-1 total volume = 0.00548
DICPCG:  Solving for p_rgh, Initial residual = 9.68042e-08, Final residual = 9.68042e-08, No Iterations 0
time step continuity errors : sum local = 1.10757e-07, global = 7.59546e-09, cumulative = -0.000124966
DICPCG:  Solving for p_rgh, Initial residual = 9.96574e-08, Final residual = 9.96574e-08, No Iterations 0
time step continuity errors : sum local = 1.14021e-07, global = 8.29096e-09, cumulative = -0.000124958
DICPCG:  Solving for p_rgh, Initial residual = 1.00347e-07, Final residual = 7.3089e-23, No Iterations 1
time step continuity errors : sum local = 2.0374e-15, global = 1.7102e-16, cumulative = -0.000124958
ExecutionTime = 0.12 s  ClockTime = 0 s

Courant Number mean: 0.238095 max: 0.238095
Interface Courant Number mean: 0 max: 0
deltaT = 0.0238095
Time = 1.30952

PIMPLE: iteration 1
MULES: Solving for alpha.water
MULES: Solving for alpha.water
Phase-1 volume fraction = 1  Min(alpha.water) = 1  Max(alpha.water) = 1
Phase-1 total volume = 0.00548
DICPCG:  Solving for p_rgh, Initial residual = 5.40959e-08, Final residual = 5.40959e-08, No Iterations 0
time step continuity errors : sum local = 6.1893e-08, global = -2.8439e-09, cumulative = -0.000124961
DICPCG:  Solving for p_rgh, Initial residual = 5.51655e-08, Final residual = 5.51655e-08, No Iterations 0
time step continuity errors : sum local = 6.31168e-08, global = -1.82258e-09, cumulative = -0.000124963
DICPCG:  Solving for p_rgh, Initial residual = 5.3262e-08, Final residual = 5.3262e-08, No Iterations 0
time step continuity errors : sum local = 6.09389e-08, global = -2.07048e-09, cumulative = -0.000124965
ExecutionTime = 0.12 s  ClockTime = 0 s

Courant Number mean: 0.238095 max: 0.238095
Interface Courant Number mean: 0 max: 0
deltaT = 0.0238095
Time = 1.33333

PIMPLE: iteration 1
MULES: Solving for alpha.water
MULES: Solving for alpha.water
Phase-1 volume fraction = 1  Min(alpha.water) = 1  Max(alpha.water) = 1
Phase-1 total volume = 0.00548
DICPCG:  Solving for p_rgh, Initial residual = 1.008e-07, Final residual = 1.52199e-22, No Iterations 1
time step continuity errors : sum local = 2.12517e-15, global = 5.01444e-16, cumulative = -0.000124965
DICPCG:  Solving for p_rgh, Initial residual = 4.22396e-09, Final residual = 4.22396e-09, No Iterations 0
time step continuity errors : sum local = 4.83278e-09, global = 4.22493e-10, cumulative = -0.000124964
DICPCG:  Solving for p_rgh, Initial residual = 3.9794e-09, Final residual = 3.9794e-09, No Iterations 0
time step continuity errors : sum local = 4.55297e-09, global = 2.88479e-10, cumulative = -0.000124964
ExecutionTime = 0.13 s  ClockTime = 0 s

Courant Number mean: 0.238095 max: 0.238095
Interface Courant Number mean: 0 max: 0
deltaT = 0.0238095
Time = 1.35714

PIMPLE: iteration 1
MULES: Solving for alpha.water
MULES: Solving for alpha.water
Phase-1 volume fraction = 1  Min(alpha.water) = 1  Max(alpha.water) = 1
Phase-1 total volume = 0.00548
DICPCG:  Solving for p_rgh, Initial residual = 4.57218e-08, Final residual = 4.57218e-08, No Iterations 0
time step continuity errors : sum local = 5.23119e-08, global = 2.43789e-09, cumulative = -0.000124961
DICPCG:  Solving for p_rgh, Initial residual = 4.80655e-08, Final residual = 4.80655e-08, No Iterations 0
time step continuity errors : sum local = 5.49934e-08, global = 2.63088e-09, cumulative = -0.000124959
DICPCG:  Solving for p_rgh, Initial residual = 4.82488e-08, Final residual = 4.82488e-08, No Iterations 0
time step continuity errors : sum local = 5.52031e-08, global = 2.51483e-09, cumulative = -0.000124956
ExecutionTime = 0.13 s  ClockTime = 0 s

Courant Number mean: 0.238095 max: 0.238096
Interface Courant Number mean: 0 max: 0
deltaT = 0.0238095
Time = 1.38095

PIMPLE: iteration 1
MULES: Solving for alpha.water
MULES: Solving for alpha.water
Phase-1 volume fraction = 1  Min(alpha.water) = 1  Max(alpha.water) = 1
Phase-1 total volume = 0.00548
DICPCG:  Solving for p_rgh, Initial residual = 8.53013e-08, Final residual = 8.53013e-08, No Iterations 0
time step continuity errors : sum local = 9.75961e-08, global = 4.53337e-09, cumulative = -0.000124952
DICPCG:  Solving for p_rgh, Initial residual = 8.7836e-08, Final residual = 8.7836e-08, No Iterations 0
time step continuity errors : sum local = 1.00496e-07, global = 4.55512e-09, cumulative = -0.000124947
DICPCG:  Solving for p_rgh, Initial residual = 8.79193e-08, Final residual = 8.79193e-08, No Iterations 0
time step continuity errors : sum local = 1.00592e-07, global = 4.46527e-09, cumulative = -0.000124943
ExecutionTime = 0.13 s  ClockTime = 0 s

Courant Number mean: 0.238095 max: 0.238096
Interface Courant Number mean: 0 max: 0
deltaT = 0.0238095
Time = 1.40476

PIMPLE: iteration 1
MULES: Solving for alpha.water
MULES: Solving for alpha.water
Phase-1 volume fraction = 1  Min(alpha.water) = 0.999999  Max(alpha.water) = 1
Phase-1 total volume = 0.00548
DICPCG:  Solving for p_rgh, Initial residual = 1.21639e-07, Final residual = 1.85985e-22, No Iterations 1
time step continuity errors : sum local = 1.5992e-15, global = 1.00676e-16, cumulative = -0.000124943
DICPCG:  Solving for p_rgh, Initial residual = 1.13665e-08, Final residual = 1.13665e-08, No Iterations 0
time step continuity errors : sum local = 1.30048e-08, global = 5.18247e-10, cumulative = -0.000124942
DICPCG:  Solving for p_rgh, Initial residual = 1.15334e-08, Final residual = 1.15334e-08, No Iterations 0
time step continuity errors : sum local = 1.31958e-08, global = 3.03326e-10, cumulative = -0.000124942
ExecutionTime = 0.13 s  ClockTime = 0 s

Courant Number mean: 0.238095 max: 0.238095
Interface Courant Number mean: 0 max: 0
deltaT = 0.0238095
Time = 1.42857

PIMPLE: iteration 1
MULES: Solving for alpha.water
MULES: Solving for alpha.water
Phase-1 volume fraction = 1  Min(alpha.water) = 0.999999  Max(alpha.water) = 1
Phase-1 total volume = 0.00548
DICPCG:  Solving for p_rgh, Initial residual = 7.33252e-08, Final residual = 7.33252e-08, No Iterations 0
time step continuity errors : sum local = 8.38939e-08, global = -2.74467e-09, cumulative = -0.000124945
DICPCG:  Solving for p_rgh, Initial residual = 7.34851e-08, Final residual = 7.34851e-08, No Iterations 0
time step continuity errors : sum local = 8.40769e-08, global = -2.53541e-09, cumulative = -0.000124947
DICPCG:  Solving for p_rgh, Initial residual = 7.2305e-08, Final residual = 7.2305e-08, No Iterations 0
time step continuity errors : sum local = 8.27266e-08, global = -2.76697e-09, cumulative = -0.00012495
ExecutionTime = 0.14 s  ClockTime = 0 s

Courant Number mean: 0.238095 max: 0.238096
Interface Courant Number mean: 0 max: 0
deltaT = 0.0238095
Time = 1.45238

PIMPLE: iteration 1
MULES: Solving for alpha.water
MULES: Solving for alpha.water
Phase-1 volume fraction = 1  Min(alpha.water) = 1  Max(alpha.water) = 1
Phase-1 total volume = 0.00548
DICPCG:  Solving for p_rgh, Initial residual = 1.3328e-07, Final residual = 6.34934e-22, No Iterations 1
time step continuity errors : sum local = 2.25811e-15, global = -7.23447e-16, cumulative = -0.00012495
DICPCG:  Solving for p_rgh, Initial residual = 5.88308e-09, Final residual = 5.88308e-09, No Iterations 0
time step continuity errors : sum local = 6.73104e-09, global = 6.57645e-11, cumulative = -0.00012495
DICPCG:  Solving for p_rgh, Initial residual = 6.44135e-09, Final residual = 6.44135e-09, No Iterations 0
time step continuity errors : sum local = 7.36977e-09, global = 1.45808e-10, cumulative = -0.00012495
ExecutionTime = 0.14 s  ClockTime = 0 s

Courant Number mean: 0.238095 max: 0.238095
Interface Courant Number mean: 0 max: 0
deltaT = 0.0238095
Time = 1.47619

PIMPLE: iteration 1
MULES: Solving for alpha.water
MULES: Solving for alpha.water
Phase-1 volume fraction = 1  Min(alpha.water) = 1  Max(alpha.water) = 1
Phase-1 total volume = 0.00548
DICPCG:  Solving for p_rgh, Initial residual = 6.52164e-08, Final residual = 6.52164e-08, No Iterations 0
time step continuity errors : sum local = 7.46163e-08, global = 2.49732e-09, cumulative = -0.000124947
DICPCG:  Solving for p_rgh, Initial residual = 6.72709e-08, Final residual = 6.72709e-08, No Iterations 0
time step continuity errors : sum local = 7.6967e-08, global = 2.61007e-09, cumulative = -0.000124945
DICPCG:  Solving for p_rgh, Initial residual = 6.678e-08, Final residual = 6.678e-08, No Iterations 0
time step continuity errors : sum local = 7.64053e-08, global = 2.72381e-09, cumulative = -0.000124942
ExecutionTime = 0.14 s  ClockTime = 0 s

Courant Number mean: 0.238095 max: 0.238096
Interface Courant Number mean: 0 max: 0
deltaT = 0.0238095
Time = 1.5

PIMPLE: iteration 1
MULES: Solving for alpha.water
MULES: Solving for alpha.water
Phase-1 volume fraction = 1  Min(alpha.water) = 1  Max(alpha.water) = 1
Phase-1 total volume = 0.00548
DICPCG:  Solving for p_rgh, Initial residual = 1.20504e-07, Final residual = 7.58019e-22, No Iterations 1
time step continuity errors : sum local = 2.23681e-15, global = 1.78119e-16, cumulative = -0.000124942
DICPCG:  Solving for p_rgh, Initial residual = 8.5008e-09, Final residual = 8.5008e-09, No Iterations 0
time step continuity errors : sum local = 9.72605e-09, global = -5.93153e-10, cumulative = -0.000124943
DICPCG:  Solving for p_rgh, Initial residual = 9.25484e-09, Final residual = 9.25484e-09, No Iterations 0
time step continuity errors : sum local = 1.05888e-08, global = -8.9984e-10, cumulative = -0.000124943
ExecutionTime = 0.14 s  ClockTime = 0 s

Courant Number mean: 0.238095 max: 0.238095
Interface Courant Number mean: 0 max: 0
deltaT = 0.0238095
Time = 1.52381

PIMPLE: iteration 1
MULES: Solving for alpha.water
MULES: Solving for alpha.water
Phase-1 volume fraction = 1  Min(alpha.water) = 1  Max(alpha.water) = 1
Phase-1 total volume = 0.00548
DICPCG:  Solving for p_rgh, Initial residual = 6.152e-08, Final residual = 6.152e-08, No Iterations 0
time step continuity errors : sum local = 7.03871e-08, global = -3.48903e-09, cumulative = -0.000124947
DICPCG:  Solving for p_rgh, Initial residual = 6.50613e-08, Final residual = 6.50613e-08, No Iterations 0
time step continuity errors : sum local = 7.44388e-08, global = -4.3036e-09, cumulative = -0.000124951
DICPCG:  Solving for p_rgh, Initial residual = 6.48105e-08, Final residual = 6.48105e-08, No Iterations 0
time step continuity errors : sum local = 7.41519e-08, global = -4.6088e-09, cumulative = -0.000124956
ExecutionTime = 0.14 s  ClockTime = 0 s

Courant Number mean: 0.238095 max: 0.238095
Interface Courant Number mean: 0 max: 0
deltaT = 0.0238095
Time = 1.54762

PIMPLE: iteration 1
MULES: Solving for alpha.water
MULES: Solving for alpha.water
Phase-1 volume fraction = 1  Min(alpha.water) = 1  Max(alpha.water) = 1
Phase-1 total volume = 0.00548
DICPCG:  Solving for p_rgh, Initial residual = 1.14858e-07, Final residual = 9.36574e-22, No Iterations 1
time step continuity errors : sum local = 2.15485e-15, global = 1.43915e-16, cumulative = -0.000124956
DICPCG:  Solving for p_rgh, Initial residual = 7.78815e-09, Final residual = 7.78815e-09, No Iterations 0
time step continuity errors : sum local = 8.91069e-09, global = 1.05098e-09, cumulative = -0.000124955
DICPCG:  Solving for p_rgh, Initial residual = 8.97923e-09, Final residual = 8.97923e-09, No Iterations 0
time step continuity errors : sum local = 1.02734e-08, global = 1.38966e-09, cumulative = -0.000124953
ExecutionTime = 0.14 s  ClockTime = 0 s

Courant Number mean: 0.238095 max: 0.238095
Interface Courant Number mean: 0 max: 0
deltaT = 0.0238095
Time = 1.57143

PIMPLE: iteration 1
MULES: Solving for alpha.water
MULES: Solving for alpha.water
Phase-1 volume fraction = 1  Min(alpha.water) = 1  Max(alpha.water) = 1
Phase-1 total volume = 0.00548
DICPCG:  Solving for p_rgh, Initial residual = 6.45603e-08, Final residual = 6.45603e-08, No Iterations 0
time step continuity errors : sum local = 7.38657e-08, global = 6.08566e-09, cumulative = -0.000124947
DICPCG:  Solving for p_rgh, Initial residual = 7.00236e-08, Final residual = 7.00236e-08, No Iterations 0
time step continuity errors : sum local = 8.01164e-08, global = 7.27556e-09, cumulative = -0.00012494
DICPCG:  Solving for p_rgh, Initial residual = 7.01646e-08, Final residual = 7.01646e-08, No Iterations 0
time step continuity errors : sum local = 8.02777e-08, global = 7.6363e-09, cumulative = -0.000124932
ExecutionTime = 0.14 s  ClockTime = 0 s

Courant Number mean: 0.238095 max: 0.238097
Interface Courant Number mean: 0 max: 0
deltaT = 0.0238095
Time = 1.59524

PIMPLE: iteration 1
MULES: Solving for alpha.water
MULES: Solving for alpha.water
Phase-1 volume fraction = 1  Min(alpha.water) = 1  Max(alpha.water) = 1
Phase-1 total volume = 0.00548
DICPCG:  Solving for p_rgh, Initial residual = 1.23329e-07, Final residual = 1.14039e-21, No Iterations 1
time step continuity errors : sum local = 1.65405e-15, global = 2.82022e-16, cumulative = -0.000124932
DICPCG:  Solving for p_rgh, Initial residual = 1.02795e-08, Final residual = 1.02795e-08, No Iterations 0
time step continuity errors : sum local = 1.17612e-08, global = -2.25871e-09, cumulative = -0.000124935
DICPCG:  Solving for p_rgh, Initial residual = 1.15433e-08, Final residual = 1.15433e-08, No Iterations 0
time step continuity errors : sum local = 1.32071e-08, global = -2.83367e-09, cumulative = -0.000124938
ExecutionTime = 0.15 s  ClockTime = 0 s

Courant Number mean: 0.238095 max: 0.238095
Interface Courant Number mean: 0 max: 0
deltaT = 0.0238095
Time = 1.61905

PIMPLE: iteration 1
MULES: Solving for alpha.water
MULES: Solving for alpha.water
Phase-1 volume fraction = 1  Min(alpha.water) = 1  Max(alpha.water) = 1
Phase-1 total volume = 0.00548
DICPCG:  Solving for p_rgh, Initial residual = 7.22633e-08, Final residual = 7.22633e-08, No Iterations 0
time step continuity errors : sum local = 8.26789e-08, global = -1.09913e-08, cumulative = -0.000124949
DICPCG:  Solving for p_rgh, Initial residual = 7.8448e-08, Final residual = 7.8448e-08, No Iterations 0
time step continuity errors : sum local = 8.9755e-08, global = -1.34337e-08, cumulative = -0.000124962
DICPCG:  Solving for p_rgh, Initial residual = 7.85876e-08, Final residual = 7.85876e-08, No Iterations 0
time step continuity errors : sum local = 8.99147e-08, global = -1.40135e-08, cumulative = -0.000124976
ExecutionTime = 0.15 s  ClockTime = 0 s

Courant Number mean: 0.238095 max: 0.238095
Interface Courant Number mean: 0 max: 0
deltaT = 0.0238095
Time = 1.64286

PIMPLE: iteration 1
MULES: Solving for alpha.water
MULES: Solving for alpha.water
Phase-1 volume fraction = 1  Min(alpha.water) = 1  Max(alpha.water) = 1
Phase-1 total volume = 0.00548
DICPCG:  Solving for p_rgh, Initial residual = 1.3859e-07, Final residual = 1.7518e-21, No Iterations 1
[...]
time step continuity errors : sum local = 5.44236e-08, global = -2.64731e-08, cumulative = -0.000123652
DICPCG:  Solving for p_rgh, Initial residual = 4.75798e-08, Final residual = 4.75798e-08, No Iterations 0
time step continuity errors : sum local = 5.44376e-08, global = -2.66406e-08, cumulative = -0.000123679
ExecutionTime = 0.36 s  ClockTime = 1 s

Courant Number mean: 0.238095 max: 0.238096
Interface Courant Number mean: 0 max: 0
deltaT = 0.0238095
Time = 4.54762

PIMPLE: iteration 1
MULES: Solving for alpha.water
MULES: Solving for alpha.water
Phase-1 volume fraction = 1  Min(alpha.water) = 0.999985  Max(alpha.water) = 1
Phase-1 total volume = 0.00548
DICPCG:  Solving for p_rgh, Initial residual = 7.55265e-08, Final residual = 7.55265e-08, No Iterations 0
time step continuity errors : sum local = 8.64123e-08, global = -4.16052e-08, cumulative = -0.00012372
DICPCG:  Solving for p_rgh, Initial residual = 7.77878e-08, Final residual = 7.77878e-08, No Iterations 0
time step continuity errors : sum local = 8.89996e-08, global = -4.30774e-08, cumulative = -0.000123763
DICPCG:  Solving for p_rgh, Initial residual = 7.78372e-08, Final residual = 7.78372e-08, No Iterations 0
time step continuity errors : sum local = 8.90561e-08, global = -4.32234e-08, cumulative = -0.000123807
ExecutionTime = 0.36 s  ClockTime = 1 s

Courant Number mean: 0.238095 max: 0.238096
Interface Courant Number mean: 0 max: 0
deltaT = 0.0238095
Time = 4.57143

PIMPLE: iteration 1
MULES: Solving for alpha.water
MULES: Solving for alpha.water
Phase-1 volume fraction = 1  Min(alpha.water) = 0.999985  Max(alpha.water) = 1
Phase-1 total volume = 0.00548
DICPCG:  Solving for p_rgh, Initial residual = 1.0231e-07, Final residual = 5.99278e-22, No Iterations 1
time step continuity errors : sum local = 1.31653e-15, global = 5.80823e-17, cumulative = -0.000123807
DICPCG:  Solving for p_rgh, Initial residual = 7.39079e-09, Final residual = 7.39079e-09, No Iterations 0
time step continuity errors : sum local = 8.45605e-09, global = 4.62537e-09, cumulative = -0.000123802
DICPCG:  Solving for p_rgh, Initial residual = 8.13449e-09, Final residual = 8.13449e-09, No Iterations 0
time step continuity errors : sum local = 9.30694e-09, global = 5.08012e-09, cumulative = -0.000123797
ExecutionTime = 0.36 s  ClockTime = 1 s

Courant Number mean: 0.238095 max: 0.238096
Interface Courant Number mean: 0 max: 0
deltaT = 0.0238095
Time = 4.59524

PIMPLE: iteration 1
MULES: Solving for alpha.water
MULES: Solving for alpha.water
Phase-1 volume fraction = 1  Min(alpha.water) = 0.999985  Max(alpha.water) = 1
Phase-1 total volume = 0.00548
DICPCG:  Solving for p_rgh, Initial residual = 6.52078e-08, Final residual = 6.52078e-08, No Iterations 0
time step continuity errors : sum local = 7.46063e-08, global = 4.54844e-08, cumulative = -0.000123751
DICPCG:  Solving for p_rgh, Initial residual = 7.18233e-08, Final residual = 7.18233e-08, No Iterations 0
time step continuity errors : sum local = 8.21752e-08, global = 4.95484e-08, cumulative = -0.000123702
DICPCG:  Solving for p_rgh, Initial residual = 7.22246e-08, Final residual = 7.22246e-08, No Iterations 0
time step continuity errors : sum local = 8.26344e-08, global = 4.99444e-08, cumulative = -0.000123652
ExecutionTime = 0.36 s  ClockTime = 1 s

Courant Number mean: 0.238095 max: 0.238099
Interface Courant Number mean: 0 max: 0
deltaT = 0.0238095
Time = 4.61905

PIMPLE: iteration 1
MULES: Solving for alpha.water
MULES: Solving for alpha.water
Phase-1 volume fraction = 1  Min(alpha.water) = 0.999985  Max(alpha.water) = 1
Phase-1 total volume = 0.00548
DICPCG:  Solving for p_rgh, Initial residual = 1.15664e-07, Final residual = 6.73575e-22, No Iterations 1
time step continuity errors : sum local = 1.67148e-15, global = 3.6011e-16, cumulative = -0.000123652
DICPCG:  Solving for p_rgh, Initial residual = 7.41416e-09, Final residual = 7.41416e-09, No Iterations 0
time step continuity errors : sum local = 8.48275e-09, global = -5.38685e-09, cumulative = -0.000123657
DICPCG:  Solving for p_rgh, Initial residual = 8.04944e-09, Final residual = 8.04944e-09, No Iterations 0
time step continuity errors : sum local = 9.20958e-09, global = -5.90806e-09, cumulative = -0.000123663
ExecutionTime = 0.36 s  ClockTime = 1 s

Courant Number mean: 0.238095 max: 0.238095
Interface Courant Number mean: 0 max: 0
deltaT = 0.0238095
Time = 4.64286

PIMPLE: iteration 1
MULES: Solving for alpha.water
MULES: Solving for alpha.water
Phase-1 volume fraction = 1  Min(alpha.water) = 0.999984  Max(alpha.water) = 1
Phase-1 total volume = 0.00548
DICPCG:  Solving for p_rgh, Initial residual = 7.28716e-08, Final residual = 7.28716e-08, No Iterations 0
time step continuity errors : sum local = 8.33748e-08, global = -5.26038e-08, cumulative = -0.000123716
DICPCG:  Solving for p_rgh, Initial residual = 7.89944e-08, Final residual = 7.89944e-08, No Iterations 0
time step continuity errors : sum local = 9.038e-08, global = -5.7335e-08, cumulative = -0.000123773
DICPCG:  Solving for p_rgh, Initial residual = 7.9431e-08, Final residual = 7.9431e-08, No Iterations 0
time step continuity errors : sum local = 9.08795e-08, global = -5.77873e-08, cumulative = -0.000123831
ExecutionTime = 0.36 s  ClockTime = 1 s

Courant Number mean: 0.238095 max: 0.238096
Interface Courant Number mean: 0 max: 0
deltaT = 0.0238095
Time = 4.66667

PIMPLE: iteration 1
MULES: Solving for alpha.water
MULES: Solving for alpha.water
Phase-1 volume fraction = 1  Min(alpha.water) = 0.999984  Max(alpha.water) = 1
Phase-1 total volume = 0.00548
DICPCG:  Solving for p_rgh, Initial residual = 1.29602e-07, Final residual = 1.0316e-21, No Iterations 1
time step continuity errors : sum local = 2.05095e-15, global = 1.67793e-16, cumulative = -0.000123831
DICPCG:  Solving for p_rgh, Initial residual = 8.12031e-09, Final residual = 8.12031e-09, No Iterations 0
time step continuity errors : sum local = 9.29073e-09, global = 6.12636e-09, cumulative = -0.000123825
DICPCG:  Solving for p_rgh, Initial residual = 8.83641e-09, Final residual = 8.83641e-09, No Iterations 0
time step continuity errors : sum local = 1.011e-08, global = 6.71709e-09, cumulative = -0.000123818
ExecutionTime = 0.36 s  ClockTime = 1 s

Courant Number mean: 0.238095 max: 0.238096
Interface Courant Number mean: 0 max: 0
deltaT = 0.0238095
Time = 4.69048

PIMPLE: iteration 1
MULES: Solving for alpha.water
MULES: Solving for alpha.water
Phase-1 volume fraction = 1  Min(alpha.water) = 0.999984  Max(alpha.water) = 1
Phase-1 total volume = 0.00548
DICPCG:  Solving for p_rgh, Initial residual = 7.92804e-08, Final residual = 7.92804e-08, No Iterations 0
time step continuity errors : sum local = 9.07071e-08, global = 6.06741e-08, cumulative = -0.000123757
DICPCG:  Solving for p_rgh, Initial residual = 8.61505e-08, Final residual = 8.61505e-08, No Iterations 0
time step continuity errors : sum local = 9.85674e-08, global = 6.60423e-08, cumulative = -0.000123691
DICPCG:  Solving for p_rgh, Initial residual = 8.65871e-08, Final residual = 8.65871e-08, No Iterations 0
time step continuity errors : sum local = 9.90669e-08, global = 6.65547e-08, cumulative = -0.000123625
ExecutionTime = 0.37 s  ClockTime = 1 s

Courant Number mean: 0.238095 max: 0.2381
Interface Courant Number mean: 0 max: 0
deltaT = 0.0238095
Time = 4.71429

PIMPLE: iteration 1
MULES: Solving for alpha.water
MULES: Solving for alpha.water
Phase-1 volume fraction = 1  Min(alpha.water) = 0.999985  Max(alpha.water) = 1
Phase-1 total volume = 0.00548
DICPCG:  Solving for p_rgh, Initial residual = 1.43863e-07, Final residual = 1.02154e-21, No Iterations 1
time step continuity errors : sum local = 2.07225e-15, global = 3.10417e-16, cumulative = -0.000123625
DICPCG:  Solving for p_rgh, Initial residual = 8.68903e-09, Final residual = 8.68903e-09, No Iterations 0
time step continuity errors : sum local = 9.94136e-09, global = -7.05259e-09, cumulative = -0.000123632
DICPCG:  Solving for p_rgh, Initial residual = 9.49294e-09, Final residual = 9.49294e-09, No Iterations 0
time step continuity errors : sum local = 1.08611e-08, global = -7.72197e-09, cumulative = -0.00012364
ExecutionTime = 0.37 s  ClockTime = 1 s

Courant Number mean: 0.238095 max: 0.238095
Interface Courant Number mean: 0 max: 0
deltaT = 0.0238095
Time = 4.7381

PIMPLE: iteration 1
MULES: Solving for alpha.water
MULES: Solving for alpha.water
Phase-1 volume fraction = 1  Min(alpha.water) = 0.999985  Max(alpha.water) = 1
Phase-1 total volume = 0.00548
DICPCG:  Solving for p_rgh, Initial residual = 8.63097e-08, Final residual = 8.63097e-08, No Iterations 0
time step continuity errors : sum local = 9.87497e-08, global = -6.98518e-08, cumulative = -0.000123709
DICPCG:  Solving for p_rgh, Initial residual = 9.37553e-08, Final residual = 9.37553e-08, No Iterations 0
time step continuity errors : sum local = 1.07268e-07, global = -7.60288e-08, cumulative = -0.000123785
DICPCG:  Solving for p_rgh, Initial residual = 9.43199e-08, Final residual = 9.43199e-08, No Iterations 0
time step continuity errors : sum local = 1.07914e-07, global = -7.66088e-08, cumulative = -0.000123862
ExecutionTime = 0.37 s  ClockTime = 1 s

Courant Number mean: 0.238095 max: 0.238096
Interface Courant Number mean: 0 max: 0
deltaT = 0.0238095
Time = 4.7619

PIMPLE: iteration 1
MULES: Solving for alpha.water
MULES: Solving for alpha.water
Phase-1 volume fraction = 1  Min(alpha.water) = 0.999985  Max(alpha.water) = 1
Phase-1 total volume = 0.00548
DICPCG:  Solving for p_rgh, Initial residual = 1.59751e-07, Final residual = 1.21443e-21, No Iterations 1
time step continuity errors : sum local = 2.37169e-15, global = 4.67885e-16, cumulative = -0.000123862
DICPCG:  Solving for p_rgh, Initial residual = 9.34806e-09, Final residual = 9.34806e-09, No Iterations 0
time step continuity errors : sum local = 1.06955e-08, global = 8.03341e-09, cumulative = -0.000123854
DICPCG:  Solving for p_rgh, Initial residual = 1.02357e-08, Final residual = 1.02357e-08, No Iterations 0
time step continuity errors : sum local = 1.1711e-08, global = 8.79154e-09, cumulative = -0.000123845
ExecutionTime = 0.37 s  ClockTime = 1 s

Courant Number mean: 0.238095 max: 0.238096
Interface Courant Number mean: 0 max: 0
deltaT = 0.0238095
Time = 4.78571

PIMPLE: iteration 1
MULES: Solving for alpha.water
MULES: Solving for alpha.water
Phase-1 volume fraction = 1  Min(alpha.water) = 0.999985  Max(alpha.water) = 1
Phase-1 total volume = 0.00548
DICPCG:  Solving for p_rgh, Initial residual = 9.56286e-08, Final residual = 9.56286e-08, No Iterations 0
time step continuity errors : sum local = 1.09412e-07, global = 8.0243e-08, cumulative = -0.000123765
DICPCG:  Solving for p_rgh, Initial residual = 1.03536e-07, Final residual = 7.21826e-22, No Iterations 1
time step continuity errors : sum local = 1.69923e-15, global = 6.64719e-17, cumulative = -0.000123765
DICPCG:  Solving for p_rgh, Initial residual = 9.59248e-09, Final residual = 9.59248e-09, No Iterations 0
time step continuity errors : sum local = 1.0975e-08, global = -8.1358e-09, cumulative = -0.000123773
ExecutionTime = 0.38 s  ClockTime = 1 s

Courant Number mean: 0.238095 max: 0.238095
Interface Courant Number mean: 0 max: 0
deltaT = 0.0238095
Time = 4.80952

PIMPLE: iteration 1
MULES: Solving for alpha.water
MULES: Solving for alpha.water
Phase-1 volume fraction = 1  Min(alpha.water) = 0.999986  Max(alpha.water) = 1
Phase-1 total volume = 0.00548
DICPCG:  Solving for p_rgh, Initial residual = 3.83239e-08, Final residual = 3.83239e-08, No Iterations 0
time step continuity errors : sum local = 4.38476e-08, global = -2.30172e-08, cumulative = -0.000123796
DICPCG:  Solving for p_rgh, Initial residual = 4.05752e-08, Final residual = 4.05752e-08, No Iterations 0
time step continuity errors : sum local = 4.64233e-08, global = -2.45962e-08, cumulative = -0.000123821
DICPCG:  Solving for p_rgh, Initial residual = 4.056e-08, Final residual = 4.056e-08, No Iterations 0
time step continuity errors : sum local = 4.6406e-08, global = -2.47536e-08, cumulative = -0.000123846
ExecutionTime = 0.38 s  ClockTime = 1 s

Courant Number mean: 0.238095 max: 0.238096
Interface Courant Number mean: 0 max: 0
deltaT = 0.0238095
Time = 4.83333

PIMPLE: iteration 1
MULES: Solving for alpha.water
MULES: Solving for alpha.water
Phase-1 volume fraction = 1  Min(alpha.water) = 0.999986  Max(alpha.water) = 1
Phase-1 total volume = 0.00548
DICPCG:  Solving for p_rgh, Initial residual = 6.46341e-08, Final residual = 6.46341e-08, No Iterations 0
time step continuity errors : sum local = 7.39499e-08, global = -3.86662e-08, cumulative = -0.000123884
DICPCG:  Solving for p_rgh, Initial residual = 6.63232e-08, Final residual = 6.63232e-08, No Iterations 0
time step continuity errors : sum local = 7.58825e-08, global = -4.00524e-08, cumulative = -0.000123924
DICPCG:  Solving for p_rgh, Initial residual = 6.63228e-08, Final residual = 6.63228e-08, No Iterations 0
time step continuity errors : sum local = 7.5882e-08, global = -4.01888e-08, cumulative = -0.000123964
ExecutionTime = 0.38 s  ClockTime = 1 s

Courant Number mean: 0.238095 max: 0.238096
Interface Courant Number mean: 0 max: 0
deltaT = 0.0238095
Time = 4.85714

PIMPLE: iteration 1
MULES: Solving for alpha.water
MULES: Solving for alpha.water
Phase-1 volume fraction = 1  Min(alpha.water) = 0.999986  Max(alpha.water) = 1
Phase-1 total volume = 0.00548
DICPCG:  Solving for p_rgh, Initial residual = 9.31082e-08, Final residual = 9.31082e-08, No Iterations 0
time step continuity errors : sum local = 1.06528e-07, global = -5.3136e-08, cumulative = -0.000124018
DICPCG:  Solving for p_rgh, Initial residual = 9.42857e-08, Final residual = 9.42857e-08, No Iterations 0
time step continuity errors : sum local = 1.07875e-07, global = -5.43419e-08, cumulative = -0.000124072
DICPCG:  Solving for p_rgh, Initial residual = 9.4167e-08, Final residual = 9.4167e-08, No Iterations 0
time step continuity errors : sum local = 1.0774e-07, global = -5.44599e-08, cumulative = -0.000124126
ExecutionTime = 0.38 s  ClockTime = 1 s

Courant Number mean: 0.238095 max: 0.238096
Interface Courant Number mean: 0 max: 0
deltaT = 0.0238095
Time = 4.88095

PIMPLE: iteration 1
MULES: Solving for alpha.water
MULES: Solving for alpha.water
Phase-1 volume fraction = 1  Min(alpha.water) = 0.999984  Max(alpha.water) = 1
Phase-1 total volume = 0.00548
DICPCG:  Solving for p_rgh, Initial residual = 1.13922e-07, Final residual = 4.62143e-22, No Iterations 1
time step continuity errors : sum local = 1.90768e-15, global = 2.68469e-16, cumulative = -0.000124126
DICPCG:  Solving for p_rgh, Initial residual = 9.36964e-09, Final residual = 9.36964e-09, No Iterations 0
time step continuity errors : sum local = 1.07201e-08, global = 5.81909e-09, cumulative = -0.000124121
DICPCG:  Solving for p_rgh, Initial residual = 1.01848e-08, Final residual = 1.01848e-08, No Iterations 0
time step continuity errors : sum local = 1.16527e-08, global = 6.37983e-09, cumulative = -0.000124114
ExecutionTime = 0.38 s  ClockTime = 1 s

Courant Number mean: 0.238095 max: 0.238096
Interface Courant Number mean: 0 max: 0
deltaT = 0.0238095
Time = 4.90476

PIMPLE: iteration 1
MULES: Solving for alpha.water
MULES: Solving for alpha.water
Phase-1 volume fraction = 1  Min(alpha.water) = 0.999984  Max(alpha.water) = 1
Phase-1 total volume = 0.00548
DICPCG:  Solving for p_rgh, Initial residual = 7.72033e-08, Final residual = 7.72033e-08, No Iterations 0
time step continuity errors : sum local = 8.83304e-08, global = 5.72902e-08, cumulative = -0.000124057
DICPCG:  Solving for p_rgh, Initial residual = 8.42365e-08, Final residual = 8.42365e-08, No Iterations 0
time step continuity errors : sum local = 9.63774e-08, global = 6.23914e-08, cumulative = -0.000123995
DICPCG:  Solving for p_rgh, Initial residual = 8.47675e-08, Final residual = 8.47675e-08, No Iterations 0
time step continuity errors : sum local = 9.69849e-08, global = 6.28752e-08, cumulative = -0.000123932
ExecutionTime = 0.38 s  ClockTime = 1 s

Courant Number mean: 0.238095 max: 0.2381
Interface Courant Number mean: 0 max: 0
deltaT = 0.0238095
Time = 4.92857

PIMPLE: iteration 1
MULES: Solving for alpha.water
MULES: Solving for alpha.water
Phase-1 volume fraction = 1  Min(alpha.water) = 0.999984  Max(alpha.water) = 1
Phase-1 total volume = 0.00548
DICPCG:  Solving for p_rgh, Initial residual = 1.3826e-07, Final residual = 1.07363e-21, No Iterations 1
time step continuity errors : sum local = 1.6192e-15, global = 3.58174e-16, cumulative = -0.000123932
DICPCG:  Solving for p_rgh, Initial residual = 8.59971e-09, Final residual = 8.59971e-09, No Iterations 0
time step continuity errors : sum local = 9.83915e-09, global = -6.73111e-09, cumulative = -0.000123938
DICPCG:  Solving for p_rgh, Initial residual = 9.30629e-09, Final residual = 9.30629e-09, No Iterations 0
time step continuity errors : sum local = 1.06476e-08, global = -7.36257e-09, cumulative = -0.000123946
ExecutionTime = 0.38 s  ClockTime = 1 s

Courant Number mean: 0.238095 max: 0.238095
Interface Courant Number mean: 0 max: 0
deltaT = 0.0238095
Time = 4.95238

PIMPLE: iteration 1
MULES: Solving for alpha.water
MULES: Solving for alpha.water
Phase-1 volume fraction = 1  Min(alpha.water) = 0.999984  Max(alpha.water) = 1
Phase-1 total volume = 0.00548
DICPCG:  Solving for p_rgh, Initial residual = 8.49332e-08, Final residual = 8.49332e-08, No Iterations 0
time step continuity errors : sum local = 9.71747e-08, global = -6.61165e-08, cumulative = -0.000124012
DICPCG:  Solving for p_rgh, Initial residual = 9.16338e-08, Final residual = 9.16338e-08, No Iterations 0
time step continuity errors : sum local = 1.04841e-07, global = -7.20053e-08, cumulative = -0.000124084
DICPCG:  Solving for p_rgh, Initial residual = 9.21272e-08, Final residual = 9.21272e-08, No Iterations 0
time step continuity errors : sum local = 1.05406e-07, global = -7.25464e-08, cumulative = -0.000124156
ExecutionTime = 0.39 s  ClockTime = 1 s

Courant Number mean: 0.238095 max: 0.238096
Interface Courant Number mean: 0 max: 0
deltaT = 0.0238095
Time = 4.97619

PIMPLE: iteration 1
MULES: Solving for alpha.water
MULES: Solving for alpha.water
Phase-1 volume fraction = 1  Min(alpha.water) = 0.999985  Max(alpha.water) = 1
Phase-1 total volume = 0.00548
DICPCG:  Solving for p_rgh, Initial residual = 1.53183e-07, Final residual = 8.99416e-22, No Iterations 1
time step continuity errors : sum local = 2.54981e-15, global = 1.06936e-15, cumulative = -0.000124156
DICPCG:  Solving for p_rgh, Initial residual = 9.1989e-09, Final residual = 9.1989e-09, No Iterations 0
time step continuity errors : sum local = 1.05248e-08, global = 7.58131e-09, cumulative = -0.000124149
DICPCG:  Solving for p_rgh, Initial residual = 1.00475e-08, Final residual = 1.00475e-08, No Iterations 0
time step continuity errors : sum local = 1.14957e-08, global = 8.27961e-09, cumulative = -0.000124141
ExecutionTime = 0.39 s  ClockTime = 1 s

Courant Number mean: 0.238095 max: 0.238096
Interface Courant Number mean: 0 max: 0
deltaT = 0.0238095
Time = 5

PIMPLE: iteration 1
MULES: Solving for alpha.water
MULES: Solving for alpha.water
Phase-1 volume fraction = 1  Min(alpha.water) = 0.999985  Max(alpha.water) = 1
Phase-1 total volume = 0.00548
DICPCG:  Solving for p_rgh, Initial residual = 9.16226e-08, Final residual = 9.16226e-08, No Iterations 0
time step continuity errors : sum local = 1.04828e-07, global = 7.5941e-08, cumulative = -0.000124065
DICPCG:  Solving for p_rgh, Initial residual = 9.94939e-08, Final residual = 9.94939e-08, No Iterations 0
time step continuity errors : sum local = 1.13834e-07, global = 8.25443e-08, cumulative = -0.000123982
DICPCG:  Solving for p_rgh, Initial residual = 1.00082e-07, Final residual = 5.63804e-22, No Iterations 1
time step continuity errors : sum local = 2.15937e-15, global = -4.46588e-16, cumulative = -0.000123982
ExecutionTime = 0.39 s  ClockTime = 1 s

End

